@<TRIPOS>MOLECULE
AlkEthOH_c42
   20    19     1     0     0
SMALL
No Charge or Current Charge


@<TRIPOS>ATOM
      1 C1           0.4160     0.8450     1.8920 c3         1 MOL      -0.122800
      2 C2           1.3270    -0.8020    -1.3710 c3         1 MOL      -0.122800
      3 C3          -0.0930     1.2560     0.5160 c3         1 MOL       0.126600
      4 C4           0.0850    -1.1050    -0.5450 c3         1 MOL       0.126600
      5 C5          -0.7890     0.1260    -0.2600 c3         1 MOL       0.153800
      6 O1          -1.0210     2.3270     0.7080 oh         1 MOL      -0.614300
      7 O2          -0.7180    -2.0380    -1.2770 oh         1 MOL      -0.614300
      8 O3          -1.9280    -0.3030     0.4980 oh         1 MOL      -0.608200
      9 H1           0.8990     1.6960     2.3850 hc         1 MOL       0.049500
     10 H2           1.1440     0.0310     1.8280 hc         1 MOL       0.049500
     11 H3          -0.4050     0.5350     2.5470 hc         1 MOL       0.049500
     12 H4           1.9120    -1.7110    -1.5450 hc         1 MOL       0.049500
     13 H5           1.9820    -0.1050    -0.8380 hc         1 MOL       0.049500
     14 H6           1.0740    -0.3550    -2.3370 hc         1 MOL       0.049500
     15 H7           0.7380     1.6650    -0.0680 h1         1 MOL       0.039200
     16 H8           0.3620    -1.6010     0.3920 h1         1 MOL       0.039200
     17 H9          -1.1910     0.5250    -1.2000 h1         1 MOL       0.063400
     18 H10         -1.3350     2.5760    -0.1730 ho         1 MOL       0.406300
     19 H11         -1.4960    -2.2120    -0.7290 ho         1 MOL       0.406300
     20 H12         -2.4980     0.4740     0.5870 ho         1 MOL       0.424200
@<TRIPOS>BOND
     1     1     3 1   
     2     2     4 1   
     3     3     5 1   
     4     3     6 1   
     5     4     5 1   
     6     4     7 1   
     7     5     8 1   
     8     1     9 1   
     9     1    10 1   
    10     1    11 1   
    11     2    12 1   
    12     2    13 1   
    13     2    14 1   
    14     3    15 1   
    15     4    16 1   
    16     5    17 1   
    17     6    18 1   
    18     7    19 1   
    19     8    20 1   
@<TRIPOS>SUBSTRUCTURE
     1 MOL         1 TEMP              0 ****  ****    0 ROOT
