@<TRIPOS>MOLECULE
AlkEthOH_c154
   29    28     1     0     0
SMALL
No Charge or Current Charge


@<TRIPOS>ATOM
      1 C1          -0.0480     1.0580     0.2440 c3         1 MOL      -0.087200
      2 C2           0.9050     1.4840    -2.0350 c3         1 MOL      -0.087200
      3 C3          -1.5420     1.6340    -1.6580 c3         1 MOL      -0.087200
      4 C4           2.4550     3.4790    -0.3340 c3         1 MOL      -0.087200
      5 C5           0.9200     4.3120     1.4640 c3         1 MOL      -0.087200
      6 C6           1.1860     5.5950    -0.6430 c3         1 MOL      -0.087200
      7 C7          -0.1050     3.4570    -0.7330 c3         1 MOL      -0.060300
      8 C8          -0.1620     1.9230    -1.0160 c3         1 MOL      -0.047600
      9 C9           1.1120     4.1630    -0.0570 c3         1 MOL      -0.047600
     10 H1          -0.7900     1.3370     0.9970 hc         1 MOL       0.033600
     11 H2           0.9340     1.1790     0.7160 hc         1 MOL       0.033600
     12 H3          -0.1680    -0.0040     0.0090 hc         1 MOL       0.033600
     13 H4           0.8520     2.0830    -2.9500 hc         1 MOL       0.033600
     14 H5           1.9200     1.5610    -1.6390 hc         1 MOL       0.033600
     15 H6           0.7650     0.4350    -2.3220 hc         1 MOL       0.033600
     16 H7          -1.6870     2.2250    -2.5700 hc         1 MOL       0.033600
     17 H8          -2.3620     1.8800    -0.9730 hc         1 MOL       0.033600
     18 H9          -1.6400     0.5760    -1.9260 hc         1 MOL       0.033600
     19 H10          2.6240     3.3570    -1.4090 hc         1 MOL       0.033600
     20 H11          2.5190     2.4980     0.1450 hc         1 MOL       0.033600
     21 H12          3.2880     4.0730     0.0610 hc         1 MOL       0.033600
     22 H13         -0.0360     4.8000     1.6920 hc         1 MOL       0.033600
     23 H14          1.6960     4.9250     1.9270 hc         1 MOL       0.033600
     24 H15          0.9160     3.3360     1.9620 hc         1 MOL       0.033600
     25 H16          0.2500     6.1410    -0.4760 hc         1 MOL       0.033600
     26 H17          1.3680     5.5770    -1.7240 hc         1 MOL       0.033600
     27 H18          1.9970     6.1700    -0.1800 hc         1 MOL       0.033600
     28 H19         -0.2800     3.9560    -1.6990 hc         1 MOL       0.036800
     29 H20         -0.9870     3.7140    -0.1280 hc         1 MOL       0.036800
@<TRIPOS>BOND
     1     1     8 1   
     2     2     8 1   
     3     3     8 1   
     4     4     9 1   
     5     5     9 1   
     6     6     9 1   
     7     7     8 1   
     8     7     9 1   
     9     1    10 1   
    10     1    11 1   
    11     1    12 1   
    12     2    13 1   
    13     2    14 1   
    14     2    15 1   
    15     3    16 1   
    16     3    17 1   
    17     3    18 1   
    18     4    19 1   
    19     4    20 1   
    20     4    21 1   
    21     5    22 1   
    22     5    23 1   
    23     5    24 1   
    24     6    25 1   
    25     6    26 1   
    26     6    27 1   
    27     7    28 1   
    28     7    29 1   
@<TRIPOS>SUBSTRUCTURE
     1 MOL         1 TEMP              0 ****  ****    0 ROOT
