@<TRIPOS>MOLECULE
AlkEthOH_c312
   20    19     1     0     0
SMALL
No Charge or Current Charge


@<TRIPOS>ATOM
      1 C1           0.5110    -0.7950     0.5540 c3         1 MOL      -0.089200
      2 C2           0.2490     0.5310     2.6600 c3         1 MOL      -0.089200
      3 C3           1.2320    -2.4040     3.1420 c3         1 MOL      -0.089200
      4 C4           3.2220    -1.8290     1.7380 c3         1 MOL      -0.089200
      5 C5           1.2460    -0.2130     1.7650 c3         1 MOL      -0.062000
      6 C6           2.0680    -1.2570     2.5680 c3         1 MOL      -0.062000
      7 H1           1.1900    -1.3370    -0.1110 hc         1 MOL       0.033200
      8 H2          -0.2620    -1.5010     0.8800 hc         1 MOL       0.033200
      9 H3           0.0110    -0.0140    -0.0250 hc         1 MOL       0.033200
     10 H4           0.7600     0.9540     3.5330 hc         1 MOL       0.033200
     11 H5          -0.2360     1.3570     2.1310 hc         1 MOL       0.033200
     12 H6          -0.5280    -0.1450     3.0290 hc         1 MOL       0.033200
     13 H7           0.3970    -2.0310     3.7430 hc         1 MOL       0.033200
     14 H8           0.8290    -3.0470     2.3540 hc         1 MOL       0.033200
     15 H9           1.8460    -3.0330     3.7970 hc         1 MOL       0.033200
     16 H10          3.8460    -1.0390     1.3080 hc         1 MOL       0.033200
     17 H11          2.8350    -2.4310     0.9080 hc         1 MOL       0.033200
     18 H12          3.8590    -2.4770     2.3470 hc         1 MOL       0.033200
     19 H13          1.9520     0.5380     1.3870 hc         1 MOL       0.041200
     20 H14          2.5230    -0.7300     3.4180 hc         1 MOL       0.041200
@<TRIPOS>BOND
     1     1     5 1   
     2     2     5 1   
     3     3     6 1   
     4     4     6 1   
     5     5     6 1   
     6     1     7 1   
     7     1     8 1   
     8     1     9 1   
     9     2    10 1   
    10     2    11 1   
    11     2    12 1   
    12     3    13 1   
    13     3    14 1   
    14     3    15 1   
    15     4    16 1   
    16     4    17 1   
    17     4    18 1   
    18     5    19 1   
    19     6    20 1   
@<TRIPOS>SUBSTRUCTURE
     1 MOL         1 TEMP              0 ****  ****    0 ROOT
