@<TRIPOS>MOLECULE
AlkEthOH_c80
   23    22     1     0     0
SMALL
No Charge or Current Charge


@<TRIPOS>ATOM
      1 C1          -0.8220    -0.7580     1.8570 c3         1 MOL      -0.125300
      2 C2           1.7410    -0.2090     0.1990 c3         1 MOL      -0.115600
      3 C3          -1.0330     1.6510    -3.3110 c3         1 MOL       0.117200
      4 C4           0.3080     0.7500    -1.6050 c3         1 MOL       0.130400
      5 C5          -0.8070    -0.4630     0.3580 c3         1 MOL       0.114900
      6 C6           0.3770     0.4230    -0.1010 c3         1 MOL       0.164300
      7 O1          -0.7840    -1.7000    -0.3510 oh         1 MOL      -0.618600
      8 O2           0.3270     1.6620     0.6170 oh         1 MOL      -0.605300
      9 O3          -0.9460     1.3410    -1.9280 os         1 MOL      -0.425900
     10 H1          -1.6740    -1.3870     2.1350 hc         1 MOL       0.046400
     11 H2          -0.9370     0.1740     2.4210 hc         1 MOL       0.046400
     12 H3           0.1030    -1.2420     2.1850 hc         1 MOL       0.046400
     13 H4           1.8270    -0.4560     1.2640 hc         1 MOL       0.050800
     14 H5           2.5670     0.4580    -0.0650 hc         1 MOL       0.050800
     15 H6           1.8690    -1.1570    -0.3350 hc         1 MOL       0.050800
     16 H7          -2.0060     2.1010    -3.5240 h1         1 MOL       0.034200
     17 H8          -0.9070     0.7380    -3.8990 h1         1 MOL       0.034200
     18 H9          -0.2420     2.3590    -3.5670 h1         1 MOL       0.034200
     19 H10          0.4290    -0.1520    -2.2140 h1         1 MOL       0.043100
     20 H11          1.0860     1.4700    -1.8790 h1         1 MOL       0.043100
     21 H12         -1.7520     0.0410     0.1180 h1         1 MOL       0.057000
     22 H13         -1.5870    -2.1790    -0.0950 ho         1 MOL       0.405000
     23 H14         -0.5370     2.0520     0.4210 ho         1 MOL       0.421500
@<TRIPOS>BOND
     1     1     5 1   
     2     2     6 1   
     3     3     9 1   
     4     4     6 1   
     5     4     9 1   
     6     5     6 1   
     7     5     7 1   
     8     6     8 1   
     9     1    10 1   
    10     1    11 1   
    11     1    12 1   
    12     2    13 1   
    13     2    14 1   
    14     2    15 1   
    15     3    16 1   
    16     3    17 1   
    17     3    18 1   
    18     4    19 1   
    19     4    20 1   
    20     5    21 1   
    21     7    22 1   
    22     8    23 1   
@<TRIPOS>SUBSTRUCTURE
     1 MOL         1 TEMP              0 ****  ****    0 ROOT
