@<TRIPOS>MOLECULE
AlkEthOH_c1159
   19    18     1     0     0
SMALL
No Charge or Current Charge


@<TRIPOS>ATOM
      1 C1          -0.0020    -0.6660     0.8690 c3         1 MOL      -0.092500
      2 C2           1.2440    -0.4430     1.7060 c3         1 MOL      -0.081600
      3 C3           1.2750    -1.3490     2.9270 c3         1 MOL       0.128500
      4 C4           3.8340    -1.5870     5.5590 c3         1 MOL       0.125400
      5 C5           2.5500    -1.9090     4.8200 c3         1 MOL       0.090100
      6 O1           4.9400    -1.8420     4.7020 oh         1 MOL      -0.594000
      7 O2           2.4630    -1.0900     3.6620 os         1 MOL      -0.417200
      8 H1          -0.0100    -0.0070    -0.0060 hc         1 MOL       0.037600
      9 H2          -0.0430    -1.7000     0.5150 hc         1 MOL       0.037600
     10 H3          -0.9070    -0.4710     1.4530 hc         1 MOL       0.037600
     11 H4           1.2970     0.6050     2.0240 hc         1 MOL       0.048600
     12 H5           2.1390    -0.6180     1.0960 hc         1 MOL       0.048600
     13 H6           0.4150    -1.1590     3.5770 h1         1 MOL       0.028200
     14 H7           1.2710    -2.4040     2.6320 h1         1 MOL       0.028200
     15 H8           3.9440    -2.2110     6.4520 h1         1 MOL       0.059300
     16 H9           3.8580    -0.5300     5.8430 h1         1 MOL       0.059300
     17 H10          1.6740    -1.7100     5.4460 h1         1 MOL       0.029900
     18 H11          2.5440    -2.9550     4.5010 h1         1 MOL       0.029900
     19 H12          5.7400    -1.6250     5.2060 ho         1 MOL       0.396600
@<TRIPOS>BOND
     1     1     2 1   
     2     2     3 1   
     3     3     7 1   
     4     4     5 1   
     5     4     6 1   
     6     5     7 1   
     7     1     8 1   
     8     1     9 1   
     9     1    10 1   
    10     2    11 1   
    11     2    12 1   
    12     3    13 1   
    13     3    14 1   
    14     4    15 1   
    15     4    16 1   
    16     5    17 1   
    17     5    18 1   
    18     6    19 1   
@<TRIPOS>SUBSTRUCTURE
     1 MOL         1 TEMP              0 ****  ****    0 ROOT
