@<TRIPOS>MOLECULE
AlkEthOH_c1178
   28    27     1     0     0
SMALL
No Charge or Current Charge


@<TRIPOS>ATOM
      1 C1          -1.9120     0.0590    -5.1150 c3         1 MOL      -0.097000
      2 C2          -1.7560    -2.1660     0.6240 c3         1 MOL      -0.120300
      3 C3          -0.5830    -2.8970    -1.4640 c3         1 MOL      -0.120300
      4 C4          -3.4860    -1.7620    -1.9060 c3         1 MOL      -0.116400
      5 C5          -2.6890     0.4050    -0.9360 c3         1 MOL      -0.116400
      6 C6          -2.6060    -0.2790    -3.8130 c3         1 MOL       0.130900
      7 C7          -1.1920    -1.6960    -0.7270 c3         1 MOL       0.161800
      8 C8          -2.2440    -0.9160    -1.5800 c3         1 MOL       0.170500
      9 O1          -0.1160    -0.7910    -0.4310 oh         1 MOL      -0.607200
     10 O2          -1.6290    -0.5880    -2.8370 os         1 MOL      -0.429400
     11 H1          -2.6400     0.3040    -5.8940 hc         1 MOL       0.043200
     12 H2          -1.2360     0.9100    -4.9830 hc         1 MOL       0.043200
     13 H3          -1.3010    -0.7830    -5.4560 hc         1 MOL       0.043200
     14 H4          -2.2010    -1.3350     1.1820 hc         1 MOL       0.046100
     15 H5          -2.5070    -2.9520     0.5060 hc         1 MOL       0.046100
     16 H6          -0.9560    -2.5600     1.2620 hc         1 MOL       0.046100
     17 H7          -0.1660    -2.6180    -2.4360 hc         1 MOL       0.046100
     18 H8           0.1980    -3.3800    -0.8690 hc         1 MOL       0.046100
     19 H9          -1.3430    -3.6700    -1.6370 hc         1 MOL       0.046100
     20 H10         -3.2240    -2.7170    -2.3690 hc         1 MOL       0.047200
     21 H11         -4.0590    -1.9760    -0.9960 hc         1 MOL       0.047200
     22 H12         -4.1720    -1.2260    -2.5710 hc         1 MOL       0.047200
     23 H13         -1.8320     1.0390    -0.6880 hc         1 MOL       0.047200
     24 H14         -3.2970     0.9910    -1.6370 hc         1 MOL       0.047200
     25 H15         -3.2840     0.2440    -0.0330 hc         1 MOL       0.047200
     26 H16         -3.2630    -1.1440    -3.9410 h1         1 MOL       0.026700
     27 H17         -3.1980     0.5720    -3.4620 h1         1 MOL       0.026700
     28 H18          0.2310    -0.5030    -1.2860 ho         1 MOL       0.401200
@<TRIPOS>BOND
     1     1     6 1   
     2     2     7 1   
     3     3     7 1   
     4     4     8 1   
     5     5     8 1   
     6     6    10 1   
     7     7     8 1   
     8     7     9 1   
     9     8    10 1   
    10     1    11 1   
    11     1    12 1   
    12     1    13 1   
    13     2    14 1   
    14     2    15 1   
    15     2    16 1   
    16     3    17 1   
    17     3    18 1   
    18     3    19 1   
    19     4    20 1   
    20     4    21 1   
    21     4    22 1   
    22     5    23 1   
    23     5    24 1   
    24     5    25 1   
    25     6    26 1   
    26     6    27 1   
    27     9    28 1   
@<TRIPOS>SUBSTRUCTURE
     1 MOL         1 TEMP              0 ****  ****    0 ROOT
