@<TRIPOS>MOLECULE
AlkEthOH_c260
   25    24     1     0     0
SMALL
No Charge or Current Charge


@<TRIPOS>ATOM
      1 C1          -0.5050     1.3920    -2.2690 c3         1 MOL      -0.094200
      2 C2          -0.9000     2.0090     0.1140 c3         1 MOL      -0.094200
      3 C3           1.7130    -1.6140     1.1660 c3         1 MOL      -0.104600
      4 C4          -0.7830    -1.5770     1.1990 c3         1 MOL      -0.104600
      5 C5          -0.6930     0.8380    -0.8470 c3         1 MOL      -0.089100
      6 C6           0.4970    -0.0850    -0.4660 c3         1 MOL       0.116100
      7 C7           0.4710    -0.7350     0.9470 c3         1 MOL       0.123900
      8 O1           0.6010    -1.1180    -1.4530 oh         1 MOL      -0.593600
      9 O2           0.5070     0.2840     1.9490 oh         1 MOL      -0.593300
     10 H1          -0.3530     0.5820    -2.9910 hc         1 MOL       0.040200
     11 H2           0.3660     2.0550    -2.3170 hc         1 MOL       0.040200
     12 H3          -1.3740     1.9750    -2.5890 hc         1 MOL       0.040200
     13 H4          -1.0370     1.6510     1.1410 hc         1 MOL       0.040200
     14 H5          -0.0320     2.6740     0.1300 hc         1 MOL       0.040200
     15 H6          -1.7840     2.5950    -0.1580 hc         1 MOL       0.040200
     16 H7           2.6440    -1.0630     0.9990 hc         1 MOL       0.046400
     17 H8           1.7010    -2.4790     0.4920 hc         1 MOL       0.046400
     18 H9           1.7270    -2.0180     2.1850 hc         1 MOL       0.046400
     19 H10         -1.6880    -0.9760     1.0500 hc         1 MOL       0.046400
     20 H11         -0.8080    -1.9820     2.2160 hc         1 MOL       0.046400
     21 H12         -0.8590    -2.4080     0.4900 hc         1 MOL       0.046400
     22 H13         -1.6130     0.2410    -0.8710 hc         1 MOL       0.046700
     23 H14          1.4160     0.5110    -0.5450 h1         1 MOL       0.068900
     24 H15         -0.2410    -1.5950    -1.4330 ho         1 MOL       0.398000
     25 H16          1.3320     0.7720     1.8100 ho         1 MOL       0.400200
@<TRIPOS>BOND
     1     1     5 1   
     2     2     5 1   
     3     3     7 1   
     4     4     7 1   
     5     5     6 1   
     6     6     7 1   
     7     6     8 1   
     8     7     9 1   
     9     1    10 1   
    10     1    11 1   
    11     1    12 1   
    12     2    13 1   
    13     2    14 1   
    14     2    15 1   
    15     3    16 1   
    16     3    17 1   
    17     3    18 1   
    18     4    19 1   
    19     4    20 1   
    20     4    21 1   
    21     5    22 1   
    22     6    23 1   
    23     8    24 1   
    24     9    25 1   
@<TRIPOS>SUBSTRUCTURE
     1 MOL         1 TEMP              0 ****  ****    0 ROOT
