@<TRIPOS>MOLECULE
AlkEthOH_c1178
   28    27     0     0     0
SMALL
USER_CHARGES

@<TRIPOS>ATOM
      1 C1         -0.1647    0.0146   -0.5119 C.3       1 <0>        -0.0970
      2 C2         -0.1561   -0.1981    0.0721 C.3       1 <0>        -0.1203
      3 C3         -0.0709   -0.3010   -0.1414 C.3       1 <0>        -0.1203
      4 C4         -0.3570   -0.1980   -0.1833 C.3       1 <0>        -0.1164
      5 C5         -0.2884    0.0293   -0.0915 C.3       1 <0>        -0.1164
      6 C6         -0.2570   -0.0061   -0.3908 C.3       1 <0>         0.1309
      7 C7         -0.1209   -0.1696   -0.0761 C.3       1 <0>         0.1618
      8 C8         -0.2377   -0.1017   -0.1584 C.3       1 <0>         0.1705
      9 O1         -0.0102   -0.0803   -0.0753 O.3       1 <0>        -0.6072
     10 O2         -0.1778   -0.0673   -0.2868 O.3       1 <0>        -0.4294
     11 H1         -0.2197    0.0607   -0.5948 H         1 <0>         0.0432
     12 H2         -0.0807    0.0801   -0.4857 H         1 <0>         0.0432
     13 H3         -0.1243   -0.0814   -0.5466 H         1 <0>         0.0432
     14 H4         -0.1772   -0.1057    0.1271 H         1 <0>         0.0461
     15 H5         -0.2429   -0.2644    0.0812 H         1 <0>         0.0461
     16 H6         -0.0719   -0.2469    0.1227 H         1 <0>         0.0461
     17 H7         -0.0459   -0.2864   -0.2472 H         1 <0>         0.0461
     18 H8          0.0195   -0.3374   -0.0908 H         1 <0>         0.0461
     19 H9         -0.1464   -0.3803   -0.1348 H         1 <0>         0.0461
     20 H10        -0.3286   -0.2803   -0.2499 H         1 <0>         0.0472
     21 H11        -0.3938   -0.2410   -0.0895 H         1 <0>         0.0472
     22 H12        -0.4415   -0.1455   -0.2296 H         1 <0>         0.0472
     23 H13        -0.2069    0.1017   -0.0794 H         1 <0>         0.0472
     24 H14        -0.3675    0.0769   -0.1506 H         1 <0>         0.0472
     25 H15        -0.3311    0.0094    0.0074 H         1 <0>         0.0472
     26 H16        -0.3406   -0.0708   -0.4201 H         1 <0>         0.0267
     27 H17        -0.2964    0.0910   -0.3588 H         1 <0>         0.0267
     28 H18        -0.0096   -0.0450   -0.1667 H         1 <0>         0.4012
@<TRIPOS>BOND
     1    1    6 1
     2    2    7 1
     3    3    7 1
     4    4    8 1
     5    5    8 1
     6    6   10 1
     7    7    8 1
     8    7    9 1
     9    8   10 1
    10    1   11 1
    11    1   12 1
    12    1   13 1
    13    2   14 1
    14    2   15 1
    15    2   16 1
    16    3   17 1
    17    3   18 1
    18    3   19 1
    19    4   20 1
    20    4   21 1
    21    4   22 1
    22    5   23 1
    23    5   24 1
    24    5   25 1
    25    6   26 1
    26    6   27 1
    27    9   28 1
