@<TRIPOS>MOLECULE
AlkEthOH_c42
   20    19     0     0     0
SMALL
USER_CHARGES

@<TRIPOS>ATOM
      1 C1          0.3924    0.8491    1.8612 C.3       1 <0>        -0.1228
      2 C2          1.3473   -0.8224   -1.3457 C.3       1 <0>        -0.1228
      3 C3         -0.1774    1.2534    0.4837 C.3       1 <0>         0.1266
      4 C4          0.0757   -1.1489   -0.5370 C.3       1 <0>         0.1266
      5 C5         -0.8412    0.0817   -0.2963 C.3       1 <0>         0.1538
      6 O1         -1.1527    2.2792    0.6900 O.3       1 <0>        -0.6143
      7 O2         -0.6707   -2.1264   -1.2508 O.3       1 <0>        -0.6143
      8 O3         -2.0099   -0.3296    0.4204 O.3       1 <0>        -0.6082
      9 H1          0.7745    1.7310    2.3903 H         1 <0>         0.0495
     10 H2          1.2231    0.1414    1.7553 H         1 <0>         0.0495
     11 H3         -0.3772    0.3841    2.4899 H         1 <0>         0.0495
     12 H4          1.9105   -1.7406   -1.5547 H         1 <0>         0.0495
     13 H5          2.0085   -0.1452   -0.7925 H         1 <0>         0.0495
     14 H6          1.0920   -0.3544   -2.3046 H         1 <0>         0.0495
     15 H7          0.6461    1.6585   -0.1185 H         1 <0>         0.0392
     16 H8          0.3743   -1.5675    0.4327 H         1 <0>         0.0392
     17 H9         -1.1419    0.4679   -1.2794 H         1 <0>         0.0634
     18 H10        -1.1642    2.8491   -0.1031 H         1 <0>         0.4063
     19 H11        -1.5419   -2.1340   -0.7982 H         1 <0>         0.4063
     20 H12        -2.3023    0.4974    0.8672 H         1 <0>         0.4242
@<TRIPOS>BOND
     1    1    3 1
     2    2    4 1
     3    3    5 1
     4    3    6 1
     5    4    5 1
     6    4    7 1
     7    5    8 1
     8    1    9 1
     9    1   10 1
    10    1   11 1
    11    2   12 1
    12    2   13 1
    13    2   14 1
    14    3   15 1
    15    4   16 1
    16    5   17 1
    17    6   18 1
    18    7   19 1
    19    8   20 1
