@<TRIPOS>MOLECULE
AlkEthOH_c42
   20    19     0     0     0
SMALL
USER_CHARGES

@<TRIPOS>ATOM
      1 C1          0.0392    0.0849    0.1862 C.3       1 <0>        -0.1228
      2 C2          0.1347   -0.0822   -0.1346 C.3       1 <0>        -0.1228
      3 C3         -0.0177    0.1253    0.0484 C.3       1 <0>         0.1266
      4 C4          0.0076   -0.1149   -0.0537 C.3       1 <0>         0.1266
      5 C5         -0.0841    0.0082   -0.0296 C.3       1 <0>         0.1538
      6 O1         -0.1152    0.2279    0.0689 O.3       1 <0>        -0.6143
      7 O2         -0.0670   -0.2126   -0.1251 O.3       1 <0>        -0.6143
      8 O3         -0.2010   -0.0330    0.0421 O.3       1 <0>        -0.6082
      9 H1          0.0774    0.1731    0.2391 H         1 <0>         0.0495
     10 H2          0.1223    0.0141    0.1756 H         1 <0>         0.0495
     11 H3         -0.0378    0.0385    0.2490 H         1 <0>         0.0495
     12 H4          0.1910   -0.1740   -0.1555 H         1 <0>         0.0495
     13 H5          0.2009   -0.0145   -0.0793 H         1 <0>         0.0495
     14 H6          0.1092   -0.0354   -0.2305 H         1 <0>         0.0495
     15 H7          0.0647    0.1658   -0.0118 H         1 <0>         0.0392
     16 H8          0.0375   -0.1568    0.0432 H         1 <0>         0.0392
     17 H9         -0.1143    0.0468   -0.1279 H         1 <0>         0.0634
     18 H10        -0.1163    0.2849   -0.0104 H         1 <0>         0.4063
     19 H11        -0.1542   -0.2134   -0.0798 H         1 <0>         0.4063
     20 H12        -0.2303    0.0497    0.0867 H         1 <0>         0.4242
@<TRIPOS>BOND
     1    1    3 1
     2    2    4 1
     3    3    5 1
     4    3    6 1
     5    4    5 1
     6    4    7 1
     7    5    8 1
     8    1    9 1
     9    1   10 1
    10    1   11 1
    11    2   12 1
    12    2   13 1
    13    2   14 1
    14    3   15 1
    15    4   16 1
    16    5   17 1
    17    6   18 1
    18    7   19 1
    19    8   20 1
