@<TRIPOS>MOLECULE
AlkEthOH_c312
   20    19     0     0     0
SMALL
USER_CHARGES

@<TRIPOS>ATOM
      1 C1          0.0494   -0.0808    0.0541 C.3       1 <0>        -0.0892
      2 C2          0.0244    0.0553    0.2669 C.3       1 <0>        -0.0892
      3 C3          0.1224   -0.2424    0.3156 C.3       1 <0>        -0.0892
      4 C4          0.3244   -0.1836    0.1737 C.3       1 <0>        -0.0892
      5 C5          0.1237   -0.0217    0.1765 C.3       1 <0>        -0.0620
      6 C6          0.2070   -0.1266    0.2569 C.3       1 <0>        -0.0620
      7 H1          0.1187   -0.1295   -0.0154 H         1 <0>         0.0332
      8 H2         -0.0262   -0.1542    0.0846 H         1 <0>         0.0332
      9 H3         -0.0020   -0.0013   -0.0015 H         1 <0>         0.0332
     10 H4          0.0758    0.0982    0.3539 H         1 <0>         0.0332
     11 H5         -0.0221    0.1378    0.2116 H         1 <0>         0.0332
     12 H6         -0.0559   -0.0100    0.3033 H         1 <0>         0.0332
     13 H7          0.0429   -0.2048    0.3811 H         1 <0>         0.0332
     14 H8          0.0763   -0.3027    0.2365 H         1 <0>         0.0332
     15 H9          0.1854   -0.3091    0.3758 H         1 <0>         0.0332
     16 H10         0.3857   -0.1027    0.1318 H         1 <0>         0.0332
     17 H11         0.2887   -0.2461    0.0909 H         1 <0>         0.0332
     18 H12         0.3896   -0.2456    0.2365 H         1 <0>         0.0332
     19 H13         0.1947    0.0529    0.1380 H         1 <0>         0.0412
     20 H14         0.2521   -0.0735    0.3418 H         1 <0>         0.0412
@<TRIPOS>BOND
     1    1    5 1
     2    2    5 1
     3    3    6 1
     4    4    6 1
     5    5    6 1
     6    1    7 1
     7    1    8 1
     8    1    9 1
     9    2   10 1
    10    2   11 1
    11    2   12 1
    12    3   13 1
    13    3   14 1
    14    3   15 1
    15    4   16 1
    16    4   17 1
    17    4   18 1
    18    5   19 1
    19    6   20 1
