@<TRIPOS>MOLECULE
AlkEthOH_c80
   23    22     0     0     0
SMALL
USER_CHARGES

@<TRIPOS>ATOM
      1 C1         -0.8622   -0.8097    1.8595 C.3       1 <0>        -0.1253
      2 C2          1.7693   -0.1559    0.2858 C.3       1 <0>        -0.1156
      3 C3         -1.0747    1.7596   -3.2839 C.3       1 <0>         0.1172
      4 C4          0.3154    0.7022   -1.6109 C.3       1 <0>         0.1304
      5 C5         -0.7916   -0.5343    0.3404 C.3       1 <0>         0.1149
      6 C6          0.3798    0.4147   -0.0871 C.3       1 <0>         0.1643
      7 O1         -0.7100   -1.7954   -0.3309 O.3       1 <0>        -0.6186
      8 O2          0.2431    1.6749    0.5685 O.3       1 <0>        -0.6053
      9 O3         -0.8755    1.4748   -1.8897 O.3       1 <0>        -0.4259
     10 H1         -1.7657   -1.3806    2.1056 H         1 <0>         0.0464
     11 H2         -0.8970    0.1282    2.4276 H         1 <0>         0.0464
     12 H3          0.0054   -1.3860    2.2029 H         1 <0>         0.0464
     13 H4          1.8774   -0.2624    1.3716 H         1 <0>         0.0508
     14 H5          2.5688    0.5107   -0.0605 H         1 <0>         0.0508
     15 H6          1.9270   -1.1400   -0.1726 H         1 <0>         0.0508
     16 H7         -1.9910    2.3479   -3.4175 H         1 <0>         0.0342
     17 H8         -1.1727    0.8278   -3.8557 H         1 <0>         0.0342
     18 H9         -0.2297    2.3347   -3.6837 H         1 <0>         0.0342
     19 H10         0.3021   -0.2433   -2.1688 H         1 <0>         0.0431
     20 H11         1.2056    1.2673   -1.9167 H         1 <0>         0.0431
     21 H12        -1.7314   -0.0430    0.0545 H         1 <0>         0.0570
     22 H13        -1.4793   -2.3223   -0.0500 H         1 <0>         0.4050
     23 H14        -0.4129    2.1472    0.0126 H         1 <0>         0.4215
@<TRIPOS>BOND
     1    1    5 1
     2    2    6 1
     3    3    9 1
     4    4    6 1
     5    4    9 1
     6    5    6 1
     7    5    7 1
     8    6    8 1
     9    1   10 1
    10    1   11 1
    11    1   12 1
    12    2   13 1
    13    2   14 1
    14    2   15 1
    15    3   16 1
    16    3   17 1
    17    3   18 1
    18    4   19 1
    19    4   20 1
    20    5   21 1
    21    7   22 1
    22    8   23 1
