@<TRIPOS>MOLECULE
AlkEthOH_c1159
   19    18     0     0     0
SMALL
USER_CHARGES

@<TRIPOS>ATOM
      1 C1         -0.0026   -0.0637    0.0820 C.3       1 <0>        -0.0925
      2 C2          0.1194   -0.0399    0.1734 C.3       1 <0>        -0.0816
      3 C3          0.1237   -0.1389    0.2913 C.3       1 <0>         0.1285
      4 C4          0.3896   -0.1549    0.5547 C.3       1 <0>         0.1254
      5 C5          0.2580   -0.1939    0.4841 C.3       1 <0>         0.0901
      6 O1          0.5019   -0.2185    0.4930 O.3       1 <0>        -0.5940
      7 O2          0.2401   -0.1086    0.3696 O.3       1 <0>        -0.4172
      8 H1         -0.0029    0.0079   -0.0011 H         1 <0>         0.0376
      9 H2         -0.0005   -0.1650    0.0397 H         1 <0>         0.0376
     10 H3         -0.0962   -0.0515    0.1379 H         1 <0>         0.0376
     11 H4          0.1165    0.0627    0.2121 H         1 <0>         0.0486
     12 H5          0.2115   -0.0497    0.1145 H         1 <0>         0.0486
     13 H6          0.0330   -0.1283    0.3523 H         1 <0>         0.0282
     14 H7          0.1290   -0.2418    0.2534 H         1 <0>         0.0282
     15 H8          0.3834   -0.1855    0.6600 H         1 <0>         0.0593
     16 H9          0.4003   -0.0457    0.5521 H         1 <0>         0.0593
     17 H10         0.1742   -0.1803    0.5536 H         1 <0>         0.0299
     18 H11         0.2617   -0.2995    0.4541 H         1 <0>         0.0299
     19 H12         0.5825   -0.1720    0.5217 H         1 <0>         0.3966
@<TRIPOS>BOND
     1    1    2 1
     2    2    3 1
     3    3    7 1
     4    4    5 1
     5    4    6 1
     6    5    7 1
     7    1    8 1
     8    1    9 1
     9    1   10 1
    10    2   11 1
    11    2   12 1
    12    3   13 1
    13    3   14 1
    14    4   15 1
    15    4   16 1
    16    5   17 1
    17    5   18 1
    18    6   19 1
