@<TRIPOS>MOLECULE
AlkEthOH_c154
   29    28     0     0     0
SMALL
USER_CHARGES

@<TRIPOS>ATOM
      1 C1         -0.0055    0.1177    0.0319 C.3       1 <0>        -0.0872
      2 C2          0.0863    0.1315   -0.2037 C.3       1 <0>        -0.0872
      3 C3         -0.1574    0.1640   -0.1613 C.3       1 <0>        -0.0872
      4 C4          0.2547    0.3615   -0.0407 C.3       1 <0>        -0.0872
      5 C5          0.0883    0.4120    0.1434 C.3       1 <0>        -0.0872
      6 C6          0.1135    0.5677   -0.0499 C.3       1 <0>        -0.0872
      7 C7         -0.0015    0.3483   -0.0915 C.3       1 <0>        -0.0603
      8 C8         -0.0160    0.1921   -0.1036 C.3       1 <0>        -0.0476
      9 C9          0.1137    0.4177   -0.0098 C.3       1 <0>        -0.0476
     10 H1         -0.0732    0.1614    0.1063 H         1 <0>         0.0336
     11 H2          0.0966    0.1202    0.0715 H         1 <0>         0.0336
     12 H3         -0.0324    0.0119    0.0205 H         1 <0>         0.0336
     13 H4          0.0854    0.1858   -0.2991 H         1 <0>         0.0336
     14 H5          0.1886    0.1327   -0.1651 H         1 <0>         0.0336
     15 H6          0.0623    0.0266   -0.2252 H         1 <0>         0.0336
     16 H7         -0.1709    0.2132   -0.2586 H         1 <0>         0.0336
     17 H8         -0.2358    0.2008   -0.0939 H         1 <0>         0.0336
     18 H9         -0.1741    0.0565   -0.1758 H         1 <0>         0.0336
     19 H10         0.2738    0.3597   -0.1487 H         1 <0>         0.0336
     20 H11         0.2673    0.2601   -0.0011 H         1 <0>         0.0336
     21 H12         0.3324    0.4235    0.0058 H         1 <0>         0.0336
     22 H13        -0.0131    0.4458    0.1681 H         1 <0>         0.0336
     23 H14         0.1588    0.4769    0.1969 H         1 <0>         0.0336
     24 H15         0.1014    0.3114    0.1843 H         1 <0>         0.0336
     25 H16         0.0161    0.6141   -0.0293 H         1 <0>         0.0336
     26 H17         0.1347    0.5803   -0.1569 H         1 <0>         0.0336
     27 H18         0.1896    0.6241    0.0057 H         1 <0>         0.0336
     28 H19         0.0024    0.3870   -0.1942 H         1 <0>         0.0368
     29 H20        -0.0959    0.3875   -0.0513 H         1 <0>         0.0368
@<TRIPOS>BOND
     1    1    8 1
     2    2    8 1
     3    3    8 1
     4    4    9 1
     5    5    9 1
     6    6    9 1
     7    7    8 1
     8    7    9 1
     9    1   10 1
    10    1   11 1
    11    1   12 1
    12    2   13 1
    13    2   14 1
    14    2   15 1
    15    3   16 1
    16    3   17 1
    17    3   18 1
    18    4   19 1
    19    4   20 1
    20    4   21 1
    21    5   22 1
    22    5   23 1
    23    5   24 1
    24    6   25 1
    25    6   26 1
    26    6   27 1
    27    7   28 1
    28    7   29 1
