@<TRIPOS>MOLECULE
AlkEthOH_c1008
   14    13     0     0     0
SMALL
USER_CHARGES

@<TRIPOS>ATOM
      1 C1          0.0384   -0.0746    0.0690 C.3       1 <0>        -0.0922
      2 C2          0.2570    0.1654    0.2912 C.3       1 <0>        -0.0922
      3 C3          0.1633   -0.0189    0.1402 C.3       1 <0>        -0.0801
      4 C4          0.1321    0.1097    0.2200 C.3       1 <0>        -0.0801
      5 H1          0.0635   -0.1657    0.0132 H         1 <0>         0.0323
      6 H2         -0.0401   -0.0995    0.1414 H         1 <0>         0.0323
      7 H3         -0.0021   -0.0013   -0.0020 H         1 <0>         0.0323
      8 H4          0.2319    0.2566    0.3470 H         1 <0>         0.0323
      9 H5          0.3355    0.1903    0.2187 H         1 <0>         0.0323
     10 H6          0.2975    0.0922    0.3622 H         1 <0>         0.0323
     11 H7          0.2033   -0.0954    0.2080 H         1 <0>         0.0377
     12 H8          0.2411    0.0020    0.0657 H         1 <0>         0.0377
     13 H9          0.0920    0.1863    0.1523 H         1 <0>         0.0377
     14 H10         0.0543    0.0889    0.2946 H         1 <0>         0.0377
@<TRIPOS>BOND
     1    1    3 1
     2    2    4 1
     3    3    4 1
     4    1    5 1
     5    1    6 1
     6    1    7 1
     7    2    8 1
     8    2    9 1
     9    2   10 1
    10    3   11 1
    11    3   12 1
    12    4   13 1
    13    4   14 1
