@<TRIPOS>MOLECULE
AlkEthOH_c80
   23    22     0     0     0
SMALL
USER_CHARGES

@<TRIPOS>ATOM
      1 C1         -0.0862   -0.0810    0.1859 C.3       1 <0>        -0.1253
      2 C2          0.1769   -0.0156    0.0286 C.3       1 <0>        -0.1156
      3 C3         -0.1075    0.1760   -0.3284 C.3       1 <0>         0.1172
      4 C4          0.0315    0.0702   -0.1611 C.3       1 <0>         0.1304
      5 C5         -0.0792   -0.0534    0.0340 C.3       1 <0>         0.1149
      6 C6          0.0380    0.0415   -0.0087 C.3       1 <0>         0.1643
      7 O1         -0.0710   -0.1795   -0.0331 O.3       1 <0>        -0.6186
      8 O2          0.0243    0.1675    0.0568 O.3       1 <0>        -0.6053
      9 O3         -0.0875    0.1475   -0.1890 O.3       1 <0>        -0.4259
     10 H1         -0.1765   -0.1381    0.2106 H         1 <0>         0.0464
     11 H2         -0.0896    0.0128    0.2428 H         1 <0>         0.0464
     12 H3          0.0006   -0.1386    0.2203 H         1 <0>         0.0464
     13 H4          0.1877   -0.0262    0.1372 H         1 <0>         0.0508
     14 H5          0.2569    0.0511   -0.0060 H         1 <0>         0.0508
     15 H6          0.1927   -0.1140   -0.0172 H         1 <0>         0.0508
     16 H7         -0.1991    0.2349   -0.3417 H         1 <0>         0.0342
     17 H8         -0.1173    0.0828   -0.3856 H         1 <0>         0.0342
     18 H9         -0.0229    0.2334   -0.3684 H         1 <0>         0.0342
     19 H10         0.0302   -0.0243   -0.2169 H         1 <0>         0.0431
     20 H11         0.1206    0.1267   -0.1917 H         1 <0>         0.0431
     21 H12        -0.1732   -0.0043    0.0055 H         1 <0>         0.0570
     22 H13        -0.1479   -0.2322   -0.0050 H         1 <0>         0.4050
     23 H14        -0.0413    0.2147    0.0012 H         1 <0>         0.4215
@<TRIPOS>BOND
     1    1    5 1
     2    2    6 1
     3    3    9 1
     4    4    6 1
     5    4    9 1
     6    5    6 1
     7    5    7 1
     8    6    8 1
     9    1   10 1
    10    1   11 1
    11    1   12 1
    12    2   13 1
    13    2   14 1
    14    2   15 1
    15    3   16 1
    16    3   17 1
    17    3   18 1
    18    4   19 1
    19    4   20 1
    20    5   21 1
    21    7   22 1
    22    8   23 1
