@<TRIPOS>MOLECULE
AlkEthOH_c260
   25    24     0     0     0
SMALL
USER_CHARGES

@<TRIPOS>ATOM
      1 C1         -0.0510    0.1404   -0.2301 C.3       1 <0>        -0.0942
      2 C2         -0.1015    0.1963    0.0100 C.3       1 <0>        -0.0942
      3 C3          0.1703   -0.1686    0.1157 C.3       1 <0>        -0.1046
      4 C4         -0.0810   -0.1477    0.1249 C.3       1 <0>        -0.1046
      5 C5         -0.0698    0.0807   -0.0882 C.3       1 <0>        -0.0891
      6 C6          0.0539   -0.0057   -0.0462 C.3       1 <0>         0.1161
      7 C7          0.0508   -0.0718    0.0968 C.3       1 <0>         0.1239
      8 O1          0.0740   -0.1067   -0.1457 O.3       1 <0>        -0.5936
      9 O2          0.0666    0.0273    0.1979 O.3       1 <0>        -0.5933
     10 H1         -0.0397    0.0617   -0.3058 H         1 <0>         0.0402
     11 H2          0.0380    0.2044   -0.2342 H         1 <0>         0.0402
     12 H3         -0.1378    0.2009   -0.2590 H         1 <0>         0.0402
     13 H4         -0.1348    0.1587    0.1074 H         1 <0>         0.0402
     14 H5         -0.0134    0.2599    0.0257 H         1 <0>         0.0402
     15 H6         -0.1823    0.2595   -0.0289 H         1 <0>         0.0402
     16 H7          0.2652   -0.1193    0.0909 H         1 <0>         0.0464
     17 H8          0.1607   -0.2570    0.0515 H         1 <0>         0.0464
     18 H9          0.1763   -0.2037    0.2195 H         1 <0>         0.0464
     19 H10        -0.1673   -0.0801    0.1252 H         1 <0>         0.0464
     20 H11        -0.0774   -0.1963    0.2233 H         1 <0>         0.0464
     21 H12        -0.0986   -0.2255    0.0497 H         1 <0>         0.0464
     22 H13        -0.1582    0.0157   -0.0921 H         1 <0>         0.0467
     23 H14         0.1415    0.0606   -0.0483 H         1 <0>         0.0689
     24 H15        -0.0089   -0.1573   -0.1517 H         1 <0>         0.3980
     25 H16         0.1550    0.0664    0.1867 H         1 <0>         0.4002
@<TRIPOS>BOND
     1    1    5 1
     2    2    5 1
     3    3    7 1
     4    4    7 1
     5    5    6 1
     6    6    7 1
     7    6    8 1
     8    7    9 1
     9    1   10 1
    10    1   11 1
    11    1   12 1
    12    2   13 1
    13    2   14 1
    14    2   15 1
    15    3   16 1
    16    3   17 1
    17    3   18 1
    18    4   19 1
    19    4   20 1
    20    4   21 1
    21    5   22 1
    22    6   23 1
    23    8   24 1
    24    9   25 1
