@<TRIPOS>MOLECULE
AlkEthOH_c312
   20    19     0     0     0
SMALL
USER_CHARGES

@<TRIPOS>ATOM
      1 C1          0.5108   -0.7952    0.5544 C.3       1 MOL        -0.0892
      2 C2          0.2493    0.5315    2.6603 C.3       1 MOL        -0.0892
      3 C3          1.2321   -2.4040    3.1421 C.3       1 MOL        -0.0892
      4 C4          3.2220   -1.8286    1.7375 C.3       1 MOL        -0.0892
      5 C5          1.2455   -0.2135    1.7653 C.3       1 MOL        -0.0620
      6 C6          2.0681   -1.2569    2.5683 C.3       1 MOL        -0.0620
      7 H1          1.1901   -1.3367   -0.1113 H         1 MOL         0.0332
      8 H2         -0.2617   -1.5008    0.8796 H         1 MOL         0.0332
      9 H3          0.0108   -0.0142   -0.0254 H         1 MOL         0.0332
     10 H4          0.7599    0.9543    3.5325 H         1 MOL         0.0332
     11 H5         -0.2363    1.3572    2.1309 H         1 MOL         0.0332
     12 H6         -0.5284   -0.1455    3.0285 H         1 MOL         0.0332
     13 H7          0.3972   -2.0312    3.7425 H         1 MOL         0.0332
     14 H8          0.8292   -3.0474    2.3536 H         1 MOL         0.0332
     15 H9          1.8458   -3.0329    3.7971 H         1 MOL         0.0332
     16 H10         3.8463   -1.0389    1.3078 H         1 MOL         0.0332
     17 H11         2.8348   -2.4307    0.9080 H         1 MOL         0.0332
     18 H12         3.8592   -2.4773    2.3474 H         1 MOL         0.0332
     19 H13         1.9519    0.5380    1.3867 H         1 MOL         0.0412
     20 H14         2.5233   -0.7299    3.4181 H         1 MOL         0.0412
@<TRIPOS>BOND
     1    1    5 1
     2    2    5 1
     3    3    6 1
     4    4    6 1
     5    5    6 1
     6    1    7 1
     7    1    8 1
     8    1    9 1
     9    2   10 1
    10    2   11 1
    11    2   12 1
    12    3   13 1
    13    3   14 1
    14    3   15 1
    15    4   16 1
    16    4   17 1
    17    4   18 1
    18    5   19 1
    19    6   20 1
