@<TRIPOS>MOLECULE
AlkEthOH_c154
   29    28     0     0     0
SMALL
USER_CHARGES

@<TRIPOS>ATOM
      1 C1         -0.0480    1.0584    0.2441 C.3       1 MOL        -0.0872
      2 C2          0.9054    1.4836   -2.0351 C.3       1 MOL        -0.0872
      3 C3         -1.5424    1.6341   -1.6581 C.3       1 MOL        -0.0872
      4 C4          2.4552    3.4791   -0.3341 C.3       1 MOL        -0.0872
      5 C5          0.9198    4.3121    1.4642 C.3       1 MOL        -0.0872
      6 C6          1.1862    5.5952   -0.6427 C.3       1 MOL        -0.0872
      7 C7         -0.1048    3.4572   -0.7333 C.3       1 MOL        -0.0603
      8 C8         -0.1622    1.9230   -1.0157 C.3       1 MOL        -0.0476
      9 C9          1.1122    4.1627   -0.0566 C.3       1 MOL        -0.0476
     10 H1         -0.7901    1.3372    0.9971 H         1 MOL         0.0336
     11 H2          0.9344    1.1787    0.7162 H         1 MOL         0.0336
     12 H3         -0.1682   -0.0044    0.0086 H         1 MOL         0.0336
     13 H4          0.8518    2.0830   -2.9505 H         1 MOL         0.0336
     14 H5          1.9197    1.5614   -1.6393 H         1 MOL         0.0336
     15 H6          0.7647    0.4346   -2.3221 H         1 MOL         0.0336
     16 H7         -1.6870    2.2254   -2.5696 H         1 MOL         0.0336
     17 H8         -2.3623    1.8802   -0.9734 H         1 MOL         0.0336
     18 H9         -1.6404    0.5757   -1.9256 H         1 MOL         0.0336
     19 H10         2.6239    3.3570   -1.4093 H         1 MOL         0.0336
     20 H11         2.5188    2.4983    0.1449 H         1 MOL         0.0336
     21 H12         3.2881    4.0730    0.0612 H         1 MOL         0.0336
     22 H13        -0.0358    4.7995    1.6920 H         1 MOL         0.0336
     23 H14         1.6961    4.9246    1.9266 H         1 MOL         0.0336
     24 H15         0.9162    3.3363    1.9623 H         1 MOL         0.0336
     25 H16         0.2502    6.1405   -0.4760 H         1 MOL         0.0336
     26 H17         1.3676    5.5767   -1.7236 H         1 MOL         0.0336
     27 H18         1.9966    6.1704   -0.1804 H         1 MOL         0.0336
     28 H19        -0.2800    3.9560   -1.6987 H         1 MOL         0.0368
     29 H20        -0.9872    3.7143   -0.1280 H         1 MOL         0.0368
@<TRIPOS>BOND
     1    1    8 1
     2    2    8 1
     3    3    8 1
     4    4    9 1
     5    5    9 1
     6    6    9 1
     7    7    8 1
     8    7    9 1
     9    1   10 1
    10    1   11 1
    11    1   12 1
    12    2   13 1
    13    2   14 1
    14    2   15 1
    15    3   16 1
    16    3   17 1
    17    3   18 1
    18    4   19 1
    19    4   20 1
    20    4   21 1
    21    5   22 1
    22    5   23 1
    23    5   24 1
    24    6   25 1
    25    6   26 1
    26    6   27 1
    27    7   28 1
    28    7   29 1
