@<TRIPOS>MOLECULE
AlkEthOH_c42
   20    19     0     0     0
SMALL
USER_CHARGES

@<TRIPOS>ATOM
      1 C1          0.4165    0.8449    1.8916 C.3       1 MOL        -0.1228
      2 C2          1.3265   -0.8017   -1.3714 C.3       1 MOL        -0.1228
      3 C3         -0.0929    1.2560    0.5156 C.3       1 MOL         0.1266
      4 C4          0.0846   -1.1054   -0.5446 C.3       1 MOL         0.1266
      5 C5         -0.7887    0.1261   -0.2601 C.3       1 MOL         0.1538
      6 O1         -1.0211    2.3268    0.7082 O.3       1 MOL        -0.6143
      7 O2         -0.7175   -2.0385   -1.2768 O.3       1 MOL        -0.6143
      8 O3         -1.9279   -0.3026    0.4980 O.3       1 MOL        -0.6082
      9 H1          0.8988    1.6965    2.3845 H         1 MOL         0.0495
     10 H2          1.1438    0.0309    1.8284 H         1 MOL         0.0495
     11 H3         -0.4047    0.5355    2.5467 H         1 MOL         0.0495
     12 H4          1.9119   -1.7114   -1.5448 H         1 MOL         0.0495
     13 H5          1.9820   -0.1047   -0.8375 H         1 MOL         0.0495
     14 H6          1.0742   -0.3547   -2.3367 H         1 MOL         0.0495
     15 H7          0.7384    1.6649   -0.0678 H         1 MOL         0.0392
     16 H8          0.3625   -1.6008    0.3923 H         1 MOL         0.0392
     17 H9         -1.1910    0.5250   -1.1998 H         1 MOL         0.0634
     18 H10        -1.3348    2.5758   -0.1734 H         1 MOL         0.4063
     19 H11        -1.4965   -2.2121   -0.7293 H         1 MOL         0.4063
     20 H12        -2.4977    0.4740    0.5869 H         1 MOL         0.4242
@<TRIPOS>BOND
     1    1    3 1
     2    2    4 1
     3    3    5 1
     4    3    6 1
     5    4    5 1
     6    4    7 1
     7    5    8 1
     8    1    9 1
     9    1   10 1
    10    1   11 1
    11    2   12 1
    12    2   13 1
    13    2   14 1
    14    3   15 1
    15    4   16 1
    16    5   17 1
    17    6   18 1
    18    7   19 1
    19    8   20 1
