@<TRIPOS>MOLECULE
AlkEthOH_c80
   23    22     0     0     0
SMALL
USER_CHARGES

@<TRIPOS>ATOM
      1 C1         -0.8215   -0.7585    1.8571 C.3       1 MOL        -0.1253
      2 C2          1.7406   -0.2094    0.1990 C.3       1 MOL        -0.1156
      3 C3         -1.0333    1.6505   -3.3113 C.3       1 MOL         0.1172
      4 C4          0.3076    0.7495   -1.6045 C.3       1 MOL         0.1304
      5 C5         -0.8073   -0.4632    0.3584 C.3       1 MOL         0.1149
      6 C6          0.3765    0.4233   -0.1009 C.3       1 MOL         0.1643
      7 O1         -0.7844   -1.6996   -0.3513 O.3       1 MOL        -0.6186
      8 O2          0.3265    1.6616    0.6168 O.3       1 MOL        -0.6053
      9 O3         -0.9463    1.3405   -1.9279 O.3       1 MOL        -0.4259
     10 H1         -1.6740   -1.3868    2.1345 H         1 MOL         0.0464
     11 H2         -0.9368    0.1740    2.4214 H         1 MOL         0.0464
     12 H3          0.1029   -1.2422    2.1850 H         1 MOL         0.0464
     13 H4          1.8265   -0.4560    1.2640 H         1 MOL         0.0508
     14 H5          2.5672    0.4580   -0.0646 H         1 MOL         0.0508
     15 H6          1.8688   -1.1570   -0.3351 H         1 MOL         0.0508
     16 H7         -2.0057    2.1013   -3.5240 H         1 MOL         0.0342
     17 H8         -0.9066    0.7376   -3.8988 H         1 MOL         0.0342
     18 H9         -0.2419    2.3589   -3.5673 H         1 MOL         0.0342
     19 H10         0.4286   -0.1522   -2.2141 H         1 MOL         0.0431
     20 H11         1.0864    1.4697   -1.8786 H         1 MOL         0.0431
     21 H12        -1.7515    0.0407    0.1184 H         1 MOL         0.0570
     22 H13        -1.5870   -2.1795   -0.0949 H         1 MOL         0.4050
     23 H14        -0.5372    2.0518    0.4208 H         1 MOL         0.4215
@<TRIPOS>BOND
     1    1    5 1
     2    2    6 1
     3    3    9 1
     4    4    6 1
     5    4    9 1
     6    5    6 1
     7    5    7 1
     8    6    8 1
     9    1   10 1
    10    1   11 1
    11    1   12 1
    12    2   13 1
    13    2   14 1
    14    2   15 1
    15    3   16 1
    16    3   17 1
    17    3   18 1
    18    4   19 1
    19    4   20 1
    20    5   21 1
    21    7   22 1
    22    8   23 1
