@<TRIPOS>MOLECULE
AlkEthOH_c1159
   19    18     0     0     0
SMALL
USER_CHARGES

@<TRIPOS>ATOM
      1 C1         -0.0023   -0.6657    0.8688 C.3       1 MOL        -0.0925
      2 C2          1.2444   -0.4434    1.7060 C.3       1 MOL        -0.0816
      3 C3          1.2749   -1.3494    2.9273 C.3       1 MOL         0.1285
      4 C4          3.8343   -1.5865    5.5594 C.3       1 MOL         0.1254
      5 C5          2.5499   -1.9092    4.8204 C.3       1 MOL         0.0901
      6 O1          4.9399   -1.8419    4.7017 O.3       1 MOL        -0.5940
      7 O2          2.4629   -1.0899    3.6622 O.3       1 MOL        -0.4172
      8 H1         -0.0099   -0.0072   -0.0057 H         1 MOL         0.0376
      9 H2         -0.0425   -1.7005    0.5148 H         1 MOL         0.0376
     10 H3         -0.9071   -0.4713    1.4534 H         1 MOL         0.0376
     11 H4          1.2973    0.6048    2.0240 H         1 MOL         0.0486
     12 H5          2.1387   -0.6182    1.0958 H         1 MOL         0.0486
     13 H6          0.4147   -1.1588    3.5770 H         1 MOL         0.0282
     14 H7          1.2712   -2.4035    2.6320 H         1 MOL         0.0282
     15 H8          3.9436   -2.2108    6.4515 H         1 MOL         0.0593
     16 H9          3.8577   -0.5304    5.8433 H         1 MOL         0.0593
     17 H10         1.6740   -1.7095    5.4456 H         1 MOL         0.0299
     18 H11         2.5442   -2.9555    4.5013 H         1 MOL         0.0299
     19 H12         5.7402   -1.6252    5.2062 H         1 MOL         0.3966
@<TRIPOS>BOND
     1    1    2 1
     2    2    3 1
     3    3    7 1
     4    4    5 1
     5    4    6 1
     6    5    7 1
     7    1    8 1
     8    1    9 1
     9    1   10 1
    10    2   11 1
    11    2   12 1
    12    3   13 1
    13    3   14 1
    14    4   15 1
    15    4   16 1
    16    5   17 1
    17    5   18 1
    18    6   19 1
