@<TRIPOS>MOLECULE
AlkEthOH_c260
   25    24     0     0     0
SMALL
USER_CHARGES

@<TRIPOS>ATOM
      1 C1         -0.5049    1.3917   -2.2694 C.3       1 MOL        -0.0942
      2 C2         -0.8997    2.0087    0.1142 C.3       1 MOL        -0.0942
      3 C3          1.7127   -1.6143    1.1660 C.3       1 MOL        -0.1046
      4 C4         -0.7828   -1.5775    1.1993 C.3       1 MOL        -0.1046
      5 C5         -0.6925    0.8380   -0.8473 C.3       1 MOL        -0.0891
      6 C6          0.4973   -0.0854   -0.4655 C.3       1 MOL         0.1161
      7 C7          0.4712   -0.7352    0.9465 C.3       1 MOL         0.1239
      8 O1          0.6013   -1.1180   -1.4531 O.3       1 MOL        -0.5936
      9 O2          0.5074    0.2837    1.9488 O.3       1 MOL        -0.5933
     10 H1         -0.3529    0.5821   -2.9913 H         1 MOL         0.0402
     11 H2          0.3658    2.0548   -2.3169 H         1 MOL         0.0402
     12 H3         -1.3740    1.9753   -2.5894 H         1 MOL         0.0402
     13 H4         -1.0374    1.6511    1.1408 H         1 MOL         0.0402
     14 H5         -0.0320    2.6737    0.1295 H         1 MOL         0.0402
     15 H6         -1.7841    2.5945   -0.1580 H         1 MOL         0.0402
     16 H7          2.6436   -1.0633    0.9987 H         1 MOL         0.0464
     17 H8          1.7010   -2.4794    0.4925 H         1 MOL         0.0464
     18 H9          1.7269   -2.0185    2.1847 H         1 MOL         0.0464
     19 H10        -1.6878   -0.9763    1.0501 H         1 MOL         0.0464
     20 H11        -0.8080   -1.9824    2.2155 H         1 MOL         0.0464
     21 H12        -0.8586   -2.4077    0.4897 H         1 MOL         0.0464
     22 H13        -1.6133    0.2414   -0.8705 H         1 MOL         0.0467
     23 H14         1.4158    0.5110   -0.5455 H         1 MOL         0.0689
     24 H15        -0.2406   -1.5945   -1.4334 H         1 MOL         0.3980
     25 H16         1.3323    0.7719    1.8101 H         1 MOL         0.4002
@<TRIPOS>BOND
     1    1    5 1
     2    2    5 1
     3    3    7 1
     4    4    7 1
     5    5    6 1
     6    6    7 1
     7    6    8 1
     8    7    9 1
     9    1   10 1
    10    1   11 1
    11    1   12 1
    12    2   13 1
    13    2   14 1
    14    2   15 1
    15    3   16 1
    16    3   17 1
    17    3   18 1
    18    4   19 1
    19    4   20 1
    20    4   21 1
    21    5   22 1
    22    6   23 1
    23    8   24 1
    24    9   25 1
