@<TRIPOS>MOLECULE
AlkEthOH_c80
   23    22     0     0     0
SMALL
NO_CHARGES

@<TRIPOS>ATOM
      1 C1         -0.7707   -0.8005    1.8573 C.3       1 <0>         0.0000
      2 C2          1.7716   -0.1407    0.1953 C.3       1 <0>         0.0000
      3 C3         -1.1293    1.6971   -3.2547 C.3       1 <0>         0.0000
      4 C4          0.2684    0.7326   -1.6125 C.3       1 <0>         0.0000
      5 C5         -0.7612   -0.5274    0.3540 C.3       1 <0>         0.0000
      6 C6          0.3804    0.4272   -0.1004 C.3       1 <0>         0.0000
      7 O1         -0.6782   -1.7833   -0.3334 O.3       1 <0>         0.0000
      8 O2          0.2670    1.6797    0.6113 O.3       1 <0>         0.0000
      9 O3         -0.9723    1.4223   -1.8640 O.3       1 <0>         0.0000
     10 H1         -1.6439   -1.4070    2.1233 H         1 <0>         0.0000
     11 H2         -0.8103    0.1250    2.4387 H         1 <0>         0.0000
     12 H3          0.1056   -1.3800    2.1651 H         1 <0>         0.0000
     13 H4          1.9329   -0.2625    1.2714 H         1 <0>         0.0000
     14 H5          2.5511    0.5511   -0.1453 H         1 <0>         0.0000
     15 H6          1.9324   -1.1052   -0.2963 H         1 <0>         0.0000
     16 H7         -2.0780    2.2220   -3.3946 H         1 <0>         0.0000
     17 H8         -1.1567    0.7649   -3.8271 H         1 <0>         0.0000
     18 H9         -0.3175    2.3380   -3.6115 H         1 <0>         0.0000
     19 H10         0.3115   -0.1867   -2.2079 H         1 <0>         0.0000
     20 H11         1.0850    1.3975   -1.9196 H         1 <0>         0.0000
     21 H12        -1.7278   -0.0756    0.0994 H         1 <0>         0.0000
     22 H13        -1.4570   -2.3027   -0.0458 H         1 <0>         0.0000
     23 H14        -0.5050    2.1270    0.1995 H         1 <0>         0.0000
@<TRIPOS>BOND
     1    1    5 1
     2    2    6 1
     3    3    9 1
     4    4    6 1
     5    4    9 1
     6    5    6 1
     7    5    7 1
     8    6    8 1
     9    1   10 1
    10    1   11 1
    11    1   12 1
    12    2   13 1
    13    2   14 1
    14    2   15 1
    15    3   16 1
    16    3   17 1
    17    3   18 1
    18    4   19 1
    19    4   20 1
    20    5   21 1
    21    7   22 1
    22    8   23 1
