@<TRIPOS>MOLECULE
AlkEthOH_c260
   25    24     0     0     0
SMALL
NO_CHARGES

@<TRIPOS>ATOM
      1 C1         -0.5260    1.3846   -2.2709 C.3       1 <0>         0.0000
      2 C2         -0.9701    1.9578    0.1149 C.3       1 <0>         0.0000
      3 C3          1.7162   -1.6450    1.1336 C.3       1 <0>         0.0000
      4 C4         -0.7736   -1.5135    1.2356 C.3       1 <0>         0.0000
      5 C5         -0.7061    0.8076   -0.8573 C.3       1 <0>         0.0000
      6 C6          0.5156   -0.0710   -0.4708 C.3       1 <0>         0.0000
      7 C7          0.5041   -0.7168    0.9546 C.3       1 <0>         0.0000
      8 O1          0.6735   -1.0935   -1.4723 O.3       1 <0>         0.0000
      9 O2          0.6057    0.2925    1.9726 O.3       1 <0>         0.0000
     10 H1         -0.4309    0.5905   -3.0183 H         1 <0>         0.0000
     11 H2          0.3670    2.0164   -2.3285 H         1 <0>         0.0000
     12 H3         -1.3903    1.9948   -2.5552 H         1 <0>         0.0000
     13 H4         -1.3174    1.5918    1.0849 H         1 <0>         0.0000
     14 H5         -0.0691    2.5603    0.2710 H         1 <0>         0.0000
     15 H6         -1.7544    2.6204   -0.2681 H         1 <0>         0.0000
     16 H7          2.6503   -1.1044    0.9419 H         1 <0>         0.0000
     17 H8          1.6743   -2.5115    0.4659 H         1 <0>         0.0000
     18 H9          1.7782   -2.0098    2.1657 H         1 <0>         0.0000
     19 H10        -1.6579   -0.8681    1.2320 H         1 <0>         0.0000
     20 H11        -0.7370   -1.9614    2.2359 H         1 <0>         0.0000
     21 H12        -0.9244   -2.3173    0.5087 H         1 <0>         0.0000
     22 H13        -1.6016    0.1745   -0.8968 H         1 <0>         0.0000
     23 H14         1.4104    0.5616   -0.5400 H         1 <0>         0.0000
     24 H15        -0.1661   -1.5965   -1.4913 H         1 <0>         0.0000
     25 H16         1.4365    0.7813    1.7984 H         1 <0>         0.0000
@<TRIPOS>BOND
     1    1    5 1
     2    2    5 1
     3    3    7 1
     4    4    7 1
     5    5    6 1
     6    6    7 1
     7    6    8 1
     8    7    9 1
     9    1   10 1
    10    1   11 1
    11    1   12 1
    12    2   13 1
    13    2   14 1
    14    2   15 1
    15    3   16 1
    16    3   17 1
    17    3   18 1
    18    4   19 1
    19    4   20 1
    20    4   21 1
    21    5   22 1
    22    6   23 1
    23    8   24 1
    24    9   25 1
