@<TRIPOS>MOLECULE
AlkEthOH_c312
   20    19     0     0     0
SMALL
NO_CHARGES

@<TRIPOS>ATOM
      1 C1          0.5039   -0.8055    0.5586 C.3       1 <0>         0.0000
      2 C2          0.2515    0.5332    2.6582 C.3       1 <0>         0.0000
      3 C3          1.2291   -2.4110    3.1405 C.3       1 <0>         0.0000
      4 C4          3.2240   -1.8294    1.7455 C.3       1 <0>         0.0000
      5 C5          1.2433   -0.2197    1.7647 C.3       1 <0>         0.0000
      6 C6          2.0647   -1.2612    2.5714 C.3       1 <0>         0.0000
      7 H1          1.1923   -1.2970   -0.1348 H         1 <0>         0.0000
      8 H2         -0.2564   -1.5319    0.8617 H         1 <0>         0.0000
      9 H3         -0.0049   -0.0114    0.0006 H         1 <0>         0.0000
     10 H4          0.7565    0.9580    3.5319 H         1 <0>         0.0000
     11 H5         -0.2087    1.3608    2.1071 H         1 <0>         0.0000
     12 H6         -0.5556   -0.1168    3.0101 H         1 <0>         0.0000
     13 H7          0.4284   -2.0437    3.7888 H         1 <0>         0.0000
     14 H8          0.7795   -3.0176    2.3482 H         1 <0>         0.0000
     15 H9          1.8563   -3.0749    3.7461 H         1 <0>         0.0000
     16 H10         3.8348   -1.0248    1.3230 H         1 <0>         0.0000
     17 H11         2.8693   -2.4592    0.9238 H         1 <0>         0.0000
     18 H12         3.8766   -2.4450    2.3744 H         1 <0>         0.0000
     19 H13         1.9508    0.5278    1.3805 H         1 <0>         0.0000
     20 H14         2.5145   -0.7333    3.4235 H         1 <0>         0.0000
@<TRIPOS>BOND
     1    1    5 1
     2    2    5 1
     3    3    6 1
     4    4    6 1
     5    5    6 1
     6    1    7 1
     7    1    8 1
     8    1    9 1
     9    2   10 1
    10    2   11 1
    11    2   12 1
    12    3   13 1
    13    3   14 1
    14    3   15 1
    15    4   16 1
    16    4   17 1
    17    4   18 1
    18    5   19 1
    19    6   20 1
