@<TRIPOS>MOLECULE
AlkEthOH_c154
   29    28     0     0     0
SMALL
NO_CHARGES

@<TRIPOS>ATOM
      1 C1         -0.0522    1.1844    0.3161 C.3       1 <0>         0.0000
      2 C2          0.8755    1.3238   -2.0088 C.3       1 <0>         0.0000
      3 C3         -1.5540    1.6358   -1.6136 C.3       1 <0>         0.0000
      4 C4          2.5307    3.6421   -0.4310 C.3       1 <0>         0.0000
      5 C5          0.8986    4.0996    1.4160 C.3       1 <0>         0.0000
      6 C6          1.0959    5.6720   -0.4929 C.3       1 <0>         0.0000
      7 C7         -0.0110    3.4695   -0.9045 C.3       1 <0>         0.0000
      8 C8         -0.1489    1.9193   -1.0250 C.3       1 <0>         0.0000
      9 C9          1.1305    4.1724   -0.1048 C.3       1 <0>         0.0000
     10 H1         -0.7346    1.6164    1.0558 H         1 <0>         0.0000
     11 H2          0.9637    1.2073    0.7199 H         1 <0>         0.0000
     12 H3         -0.3189    0.1265    0.2051 H         1 <0>         0.0000
     13 H4          0.8777    1.8691   -2.9591 H         1 <0>         0.0000
     14 H5          1.8923    1.3330   -1.6117 H         1 <0>         0.0000
     15 H6          0.6403    0.2764   -2.2331 H         1 <0>         0.0000
     16 H7         -1.6820    2.1260   -2.5855 H         1 <0>         0.0000
     17 H8         -2.3439    2.0005   -0.9470 H         1 <0>         0.0000
     18 H9         -1.7175    0.5618   -1.7600 H         1 <0>         0.0000
     19 H10         2.7104    3.6337   -1.5114 H         1 <0>         0.0000
     20 H11         2.6837    2.6320   -0.0416 H         1 <0>         0.0000
     21 H12         3.3054    4.2714    0.0234 H         1 <0>         0.0000
     22 H13        -0.1172    4.4154    1.6789 H         1 <0>         0.0000
     23 H14         1.5945    4.7577    1.9502 H         1 <0>         0.0000
     24 H15         1.0545    3.0960    1.8164 H         1 <0>         0.0000
     25 H16         0.1187    6.1158   -0.2706 H         1 <0>         0.0000
     26 H17         1.2913    5.8092   -1.5626 H         1 <0>         0.0000
     27 H18         1.8526    6.2451    0.0552 H         1 <0>         0.0000
     28 H19         0.0198    3.8581   -1.9338 H         1 <0>         0.0000
     29 H20        -0.9575    3.8538   -0.4949 H         1 <0>         0.0000
@<TRIPOS>BOND
     1    1    8 1
     2    2    8 1
     3    3    8 1
     4    4    9 1
     5    5    9 1
     6    6    9 1
     7    7    8 1
     8    7    9 1
     9    1   10 1
    10    1   11 1
    11    1   12 1
    12    2   13 1
    13    2   14 1
    14    2   15 1
    15    3   16 1
    16    3   17 1
    17    3   18 1
    18    4   19 1
    19    4   20 1
    20    4   21 1
    21    5   22 1
    22    5   23 1
    23    5   24 1
    24    6   25 1
    25    6   26 1
    26    6   27 1
    27    7   28 1
    28    7   29 1
