@<TRIPOS>MOLECULE
AlkEthOH_c154
   29    28     0     0     0
SMALL
USER_CHARGES

@<TRIPOS>ATOM
      1 C1         -0.0065    0.1174    0.0311 C.3       1 <0>        -0.0872
      2 C2          0.0858    0.1311   -0.2025 C.3       1 <0>        -0.0872
      3 C3         -0.1558    0.1657   -0.1613 C.3       1 <0>        -0.0872
      4 C4          0.2546    0.3628   -0.0407 C.3       1 <0>        -0.0872
      5 C5          0.0894    0.4118    0.1425 C.3       1 <0>        -0.0872
      6 C6          0.1121    0.5659   -0.0497 C.3       1 <0>        -0.0872
      7 C7         -0.0006    0.3476   -0.0910 C.3       1 <0>        -0.0603
      8 C8         -0.0152    0.1924   -0.1030 C.3       1 <0>        -0.0476
      9 C9          0.1137    0.4166   -0.0099 C.3       1 <0>        -0.0476
     10 H1         -0.0745    0.1621    0.1037 H         1 <0>         0.0336
     11 H2          0.0952    0.1199    0.0698 H         1 <0>         0.0336
     12 H3         -0.0341    0.0127    0.0174 H         1 <0>         0.0336
     13 H4          0.0836    0.1855   -0.2970 H         1 <0>         0.0336
     14 H5          0.1869    0.1333   -0.1628 H         1 <0>         0.0336
     15 H6          0.0606    0.0268   -0.2218 H         1 <0>         0.0336
     16 H7         -0.1668    0.2158   -0.2576 H         1 <0>         0.0336
     17 H8         -0.2327    0.2028   -0.0934 H         1 <0>         0.0336
     18 H9         -0.1715    0.0587   -0.1758 H         1 <0>         0.0336
     19 H10         0.2719    0.3620   -0.1484 H         1 <0>         0.0336
     20 H11         0.2667    0.2622   -0.0008 H         1 <0>         0.0336
     21 H12         0.3301    0.4262    0.0062 H         1 <0>         0.0336
     22 H13        -0.0115    0.4460    0.1658 H         1 <0>         0.0336
     23 H14         0.1607    0.4764    0.1939 H         1 <0>         0.0336
     24 H15         0.1026    0.3112    0.1817 H         1 <0>         0.0336
     25 H16         0.0144    0.6096   -0.0286 H         1 <0>         0.0336
     26 H17         0.1332    0.5770   -0.1562 H         1 <0>         0.0336
     27 H18         0.1877    0.6213    0.0062 H         1 <0>         0.0336
     28 H19         0.0043    0.3855   -0.1932 H         1 <0>         0.0368
     29 H20        -0.0942    0.3861   -0.0501 H         1 <0>         0.0368
@<TRIPOS>BOND
     1    1    8 1
     2    2    8 1
     3    3    8 1
     4    4    9 1
     5    5    9 1
     6    6    9 1
     7    7    8 1
     8    7    9 1
     9    1   10 1
    10    1   11 1
    11    1   12 1
    12    2   13 1
    13    2   14 1
    14    2   15 1
    15    3   16 1
    16    3   17 1
    17    3   18 1
    18    4   19 1
    19    4   20 1
    20    4   21 1
    21    5   22 1
    22    5   23 1
    23    5   24 1
    24    6   25 1
    25    6   26 1
    26    6   27 1
    27    7   28 1
    28    7   29 1
