@<TRIPOS>MOLECULE
AlkEthOH_c312
   20    19     0     0     0
SMALL
USER_CHARGES

@<TRIPOS>ATOM
      1 C1          0.0484   -0.0810    0.0559 C.3       1 <0>        -0.0892
      2 C2          0.0255    0.0543    0.2658 C.3       1 <0>        -0.0892
      3 C3          0.1229   -0.2426    0.3136 C.3       1 <0>        -0.0892
      4 C4          0.3230   -0.1830    0.1747 C.3       1 <0>        -0.0892
      5 C5          0.1245   -0.0220    0.1761 C.3       1 <0>        -0.0620
      6 C6          0.2064   -0.1261    0.2573 C.3       1 <0>        -0.0620
      7 H1          0.1173   -0.1307   -0.0123 H         1 <0>         0.0332
      8 H2         -0.0272   -0.1521    0.0893 H         1 <0>         0.0332
      9 H3         -0.0013   -0.0007    0.0013 H         1 <0>         0.0332
     10 H4          0.0779    0.0965    0.3516 H         1 <0>         0.0332
     11 H5         -0.0197    0.1359    0.2093 H         1 <0>         0.0332
     12 H6         -0.0537   -0.0118    0.3009 H         1 <0>         0.0332
     13 H7          0.0431   -0.2051    0.3775 H         1 <0>         0.0332
     14 H8          0.0799   -0.3018    0.2328 H         1 <0>         0.0332
     15 H9          0.1867   -0.3074    0.3738 H         1 <0>         0.0332
     16 H10         0.3830   -0.1016    0.1338 H         1 <0>         0.0332
     17 H11         0.2859   -0.2450    0.0931 H         1 <0>         0.0332
     18 H12         0.3868   -0.2442    0.2386 H         1 <0>         0.0332
     19 H13         0.1949    0.0517    0.1371 H         1 <0>         0.0412
     20 H14         0.2507   -0.0737    0.3422 H         1 <0>         0.0412
@<TRIPOS>BOND
     1    1    5 1
     2    2    5 1
     3    3    6 1
     4    4    6 1
     5    5    6 1
     6    1    7 1
     7    1    8 1
     8    1    9 1
     9    2   10 1
    10    2   11 1
    11    2   12 1
    12    3   13 1
    13    3   14 1
    14    3   15 1
    15    4   16 1
    16    4   17 1
    17    4   18 1
    18    5   19 1
    19    6   20 1
