@<TRIPOS>MOLECULE
AlkEthOH_c1178
   28    27     0     0     0
SMALL
USER_CHARGES

@<TRIPOS>ATOM
      1 C1         -0.1621    0.0091   -0.5078 C.3       1 <0>        -0.0970
      2 C2         -0.1563   -0.1997    0.0676 C.3       1 <0>        -0.1203
      3 C3         -0.0712   -0.2973   -0.1453 C.3       1 <0>        -0.1203
      4 C4         -0.3594   -0.1950   -0.1808 C.3       1 <0>        -0.1164
      5 C5         -0.2900    0.0285   -0.0920 C.3       1 <0>        -0.1164
      6 C6         -0.2554   -0.0082   -0.3882 C.3       1 <0>         0.1309
      7 C7         -0.1229   -0.1678   -0.0795 C.3       1 <0>         0.1618
      8 C8         -0.2391   -0.0999   -0.1616 C.3       1 <0>         0.1705
      9 O1         -0.0128   -0.0796   -0.0758 O.3       1 <0>        -0.6072
     10 O2         -0.1837   -0.0675   -0.2858 O.3       1 <0>        -0.4294
     11 H1         -0.2168    0.0553   -0.5900 H         1 <0>         0.0432
     12 H2         -0.0783    0.0730   -0.4799 H         1 <0>         0.0432
     13 H3         -0.1248   -0.0883   -0.5396 H         1 <0>         0.0432
     14 H4         -0.1797   -0.1086    0.1225 H         1 <0>         0.0461
     15 H5         -0.2401   -0.2689    0.0743 H         1 <0>         0.0461
     16 H6         -0.0699   -0.2460    0.1155 H         1 <0>         0.0461
     17 H7         -0.0466   -0.2799   -0.2501 H         1 <0>         0.0461
     18 H8          0.0187   -0.3316   -0.0941 H         1 <0>         0.0461
     19 H9         -0.1464   -0.3759   -0.1390 H         1 <0>         0.0461
     20 H10        -0.3315   -0.2791   -0.2442 H         1 <0>         0.0472
     21 H11        -0.3946   -0.2325   -0.0848 H         1 <0>         0.0472
     22 H12        -0.4423   -0.1424   -0.2280 H         1 <0>         0.0472
     23 H13        -0.2082    0.0994   -0.0790 H         1 <0>         0.0472
     24 H14        -0.3684    0.0758   -0.1509 H         1 <0>         0.0472
     25 H15        -0.3327    0.0050    0.0054 H         1 <0>         0.0472
     26 H16        -0.3392   -0.0712   -0.4180 H         1 <0>         0.0267
     27 H17        -0.2920    0.0898   -0.3579 H         1 <0>         0.0267
     28 H18        -0.0007   -0.0399   -0.1627 H         1 <0>         0.4012
@<TRIPOS>BOND
     1    1    6 1
     2    2    7 1
     3    3    7 1
     4    4    8 1
     5    5    8 1
     6    6   10 1
     7    7    8 1
     8    7    9 1
     9    8   10 1
    10    1   11 1
    11    1   12 1
    12    1   13 1
    13    2   14 1
    14    2   15 1
    15    2   16 1
    16    3   17 1
    17    3   18 1
    18    3   19 1
    19    4   20 1
    20    4   21 1
    21    4   22 1
    22    5   23 1
    23    5   24 1
    24    5   25 1
    25    6   26 1
    26    6   27 1
    27    9   28 1
