@<TRIPOS>MOLECULE
AlkEthOH_c42
   20    19     0     0     0
SMALL
USER_CHARGES

@<TRIPOS>ATOM
      1 C1          0.0391    0.0856    0.1863 C.3       1 <0>        -0.1228
      2 C2          0.1342   -0.0811   -0.1334 C.3       1 <0>        -0.1228
      3 C3         -0.0145    0.1250    0.0479 C.3       1 <0>         0.1266
      4 C4          0.0080   -0.1139   -0.0530 C.3       1 <0>         0.1266
      5 C5         -0.0826    0.0089   -0.0286 C.3       1 <0>         0.1538
      6 O1         -0.1084    0.2297    0.0664 O.3       1 <0>        -0.6143
      7 O2         -0.0656   -0.2092   -0.1265 O.3       1 <0>        -0.6143
      8 O3         -0.1977   -0.0313    0.0442 O.3       1 <0>        -0.6082
      9 H1          0.0794    0.1740    0.2359 H         1 <0>         0.0495
     10 H2          0.1191    0.0123    0.1762 H         1 <0>         0.0495
     11 H3         -0.0407    0.0438    0.2477 H         1 <0>         0.0495
     12 H4          0.1876   -0.1734   -0.1561 H         1 <0>         0.0495
     13 H5          0.2002   -0.0165   -0.0756 H         1 <0>         0.0495
     14 H6          0.1072   -0.0317   -0.2268 H         1 <0>         0.0495
     15 H7          0.0684    0.1633   -0.0116 H         1 <0>         0.0392
     16 H8          0.0366   -0.1578    0.0426 H         1 <0>         0.0392
     17 H9         -0.1145    0.0470   -0.1258 H         1 <0>         0.0634
     18 H10        -0.1219    0.2834   -0.0123 H         1 <0>         0.4063
     19 H11        -0.1531   -0.2203   -0.0876 H         1 <0>         0.4063
     20 H12        -0.2342    0.0447    0.0912 H         1 <0>         0.4242
@<TRIPOS>BOND
     1    1    3 1
     2    2    4 1
     3    3    5 1
     4    3    6 1
     5    4    5 1
     6    4    7 1
     7    5    8 1
     8    1    9 1
     9    1   10 1
    10    1   11 1
    11    2   12 1
    12    2   13 1
    13    2   14 1
    14    3   15 1
    15    4   16 1
    16    5   17 1
    17    6   18 1
    18    7   19 1
    19    8   20 1
