@<TRIPOS>MOLECULE
AlkEthOH_c1008
   14    13     0     0     0
SMALL
USER_CHARGES

@<TRIPOS>ATOM
      1 C1          0.0395   -0.0729    0.0704 C.3       1 <0>        -0.0922
      2 C2          0.2558    0.1637    0.2898 C.3       1 <0>        -0.0922
      3 C3          0.1642   -0.0184    0.1408 C.3       1 <0>        -0.0801
      4 C4          0.1312    0.1092    0.2194 C.3       1 <0>        -0.0801
      5 H1          0.0656   -0.1634    0.0154 H         1 <0>         0.0323
      6 H2         -0.0372   -0.0969    0.1441 H         1 <0>         0.0323
      7 H3          0.0008    0.0013    0.0006 H         1 <0>         0.0323
      8 H4          0.2298    0.2542    0.3448 H         1 <0>         0.0323
      9 H5          0.3326    0.1877    0.2161 H         1 <0>         0.0323
     10 H6          0.2946    0.0895    0.3597 H         1 <0>         0.0323
     11 H7          0.2025   -0.0944    0.2090 H         1 <0>         0.0377
     12 H8          0.2405    0.0035    0.0660 H         1 <0>         0.0377
     13 H9          0.0928    0.1852    0.1512 H         1 <0>         0.0377
     14 H10         0.0549    0.0873    0.2943 H         1 <0>         0.0377
@<TRIPOS>BOND
     1    1    3 1
     2    2    4 1
     3    3    4 1
     4    1    5 1
     5    1    6 1
     6    1    7 1
     7    2    8 1
     8    2    9 1
     9    2   10 1
    10    3   11 1
    11    3   12 1
    12    4   13 1
    13    4   14 1
