@<TRIPOS>MOLECULE
AlkEthOH_c42
   20    19     0     0     0
SMALL
USER_CHARGES

@<TRIPOS>ATOM
      1 C1          0.3912    0.8563    1.8626 C.3       1 <0>        -0.1228
      2 C2          1.3422   -0.8108   -1.3344 C.3       1 <0>        -0.1228
      3 C3         -0.1453    1.2495    0.4794 C.3       1 <0>         0.1266
      4 C4          0.0800   -1.1386   -0.5302 C.3       1 <0>         0.1266
      5 C5         -0.8261    0.0888   -0.2863 C.3       1 <0>         0.1538
      6 O1         -1.0836    2.2965    0.6634 O.3       1 <0>        -0.6143
      7 O2         -0.6560   -2.0918   -1.2646 O.3       1 <0>        -0.6143
      8 O3         -1.9771   -0.3132    0.4422 O.3       1 <0>        -0.6082
      9 H1          0.7935    1.7396    2.3594 H         1 <0>         0.0495
     10 H2          1.1910    0.1234    1.7623 H         1 <0>         0.0495
     11 H3         -0.4066    0.4376    2.4767 H         1 <0>         0.0495
     12 H4          1.8756   -1.7344   -1.5619 H         1 <0>         0.0495
     13 H5          2.0020   -0.1651   -0.7561 H         1 <0>         0.0495
     14 H6          1.0718   -0.3163   -2.2679 H         1 <0>         0.0495
     15 H7          0.6841    1.6331   -0.1160 H         1 <0>         0.0392
     16 H8          0.3667   -1.5781    0.4261 H         1 <0>         0.0392
     17 H9         -1.1452    0.4700   -1.2577 H         1 <0>         0.0634
     18 H10        -1.2184    2.8343   -0.1230 H         1 <0>         0.4063
     19 H11        -1.5311   -2.2038   -0.8753 H         1 <0>         0.4063
     20 H12        -2.3426    0.4474    0.9113 H         1 <0>         0.4242
@<TRIPOS>BOND
     1    1    3 1
     2    2    4 1
     3    3    5 1
     4    3    6 1
     5    4    5 1
     6    4    7 1
     7    5    8 1
     8    1    9 1
     9    1   10 1
    10    1   11 1
    11    2   12 1
    12    2   13 1
    13    2   14 1
    14    3   15 1
    15    4   16 1
    16    5   17 1
    17    6   18 1
    18    7   19 1
    19    8   20 1
