@<TRIPOS>MOLECULE
AlkEthOH_c260
   25    24     0     0     0
SMALL
USER_CHARGES

@<TRIPOS>ATOM
      1 C1         -0.0500    0.1409   -0.2279 C.3       1 <0>        -0.0942
      2 C2         -0.0999    0.1959    0.0091 C.3       1 <0>        -0.0942
      3 C3          0.1692   -0.1671    0.1144 C.3       1 <0>        -0.1046
      4 C4         -0.0801   -0.1483    0.1249 C.3       1 <0>        -0.1046
      5 C5         -0.0707    0.0798   -0.0878 C.3       1 <0>        -0.0891
      6 C6          0.0523   -0.0063   -0.0464 C.3       1 <0>         0.1161
      7 C7          0.0499   -0.0714    0.0958 C.3       1 <0>         0.1239
      8 O1          0.0695   -0.1071   -0.1449 O.3       1 <0>        -0.5936
      9 O2          0.0664    0.0257    0.1971 O.3       1 <0>        -0.5933
     10 H1         -0.0393    0.0624   -0.3028 H         1 <0>         0.0402
     11 H2          0.0394    0.2033   -0.2288 H         1 <0>         0.0402
     12 H3         -0.1362    0.2018   -0.2553 H         1 <0>         0.0402
     13 H4         -0.1331    0.1577    0.1056 H         1 <0>         0.0402
     14 H5         -0.0104    0.2567    0.0231 H         1 <0>         0.0402
     15 H6         -0.1798    0.2586   -0.0305 H         1 <0>         0.0402
     16 H7          0.2622   -0.1163    0.0889 H         1 <0>         0.0464
     17 H8          0.1583   -0.2546    0.0503 H         1 <0>         0.0464
     18 H9          0.1744   -0.2010    0.2180 H         1 <0>         0.0464
     19 H10        -0.1654   -0.0805    0.1246 H         1 <0>         0.0464
     20 H11        -0.0742   -0.1951    0.2232 H         1 <0>         0.0464
     21 H12        -0.0956   -0.2258    0.0499 H         1 <0>         0.0464
     22 H13        -0.1591    0.0161   -0.0920 H         1 <0>         0.0467
     23 H14         0.1403    0.0582   -0.0506 H         1 <0>         0.0689
     24 H15        -0.0082   -0.1626   -0.1550 H         1 <0>         0.3980
     25 H16         0.1505    0.0717    0.1917 H         1 <0>         0.4002
@<TRIPOS>BOND
     1    1    5 1
     2    2    5 1
     3    3    7 1
     4    4    7 1
     5    5    6 1
     6    6    7 1
     7    6    8 1
     8    7    9 1
     9    1   10 1
    10    1   11 1
    11    1   12 1
    12    2   13 1
    13    2   14 1
    14    2   15 1
    15    3   16 1
    16    3   17 1
    17    3   18 1
    18    4   19 1
    19    4   20 1
    20    4   21 1
    21    5   22 1
    22    6   23 1
    23    8   24 1
    24    9   25 1
