@<TRIPOS>MOLECULE
AlkEthOH_c80
   23    22     0     0     0
SMALL
USER_CHARGES

@<TRIPOS>ATOM
      1 C1         -0.0860   -0.0797    0.1841 C.3       1 <0>        -0.1253
      2 C2          0.1753   -0.0158    0.0255 C.3       1 <0>        -0.1156
      3 C3         -0.1048    0.1698   -0.3246 C.3       1 <0>         0.1172
      4 C4          0.0300    0.0722   -0.1599 C.3       1 <0>         0.1304
      5 C5         -0.0800   -0.0508    0.0335 C.3       1 <0>         0.1149
      6 C6          0.0372    0.0428   -0.0085 C.3       1 <0>         0.1643
      7 O1         -0.0738   -0.1761   -0.0327 O.3       1 <0>        -0.6186
      8 O2          0.0273    0.1676    0.0575 O.3       1 <0>        -0.6053
      9 O3         -0.0855    0.1424   -0.1911 O.3       1 <0>        -0.4259
     10 H1         -0.1768   -0.1355    0.2070 H         1 <0>         0.0464
     11 H2         -0.0878    0.0138    0.2401 H         1 <0>         0.0464
     12 H3          0.0003   -0.1386    0.2152 H         1 <0>         0.0464
     13 H4          0.1861   -0.0272    0.1333 H         1 <0>         0.0508
     14 H5          0.2537    0.0511   -0.0100 H         1 <0>         0.0508
     15 H6          0.1876   -0.1131   -0.0223 H         1 <0>         0.0508
     16 H7         -0.1980    0.2250   -0.3368 H         1 <0>         0.0342
     17 H8         -0.1111    0.0768   -0.3813 H         1 <0>         0.0342
     18 H9         -0.0225    0.2304   -0.3628 H         1 <0>         0.0342
     19 H10         0.0322   -0.0220   -0.2149 H         1 <0>         0.0431
     20 H11         0.1169    0.1313   -0.1889 H         1 <0>         0.0431
     21 H12        -0.1735   -0.0019    0.0054 H         1 <0>         0.0570
     22 H13        -0.1480   -0.2334   -0.0117 H         1 <0>         0.4050
     23 H14        -0.0390    0.2222    0.0140 H         1 <0>         0.4215
@<TRIPOS>BOND
     1    1    5 1
     2    2    6 1
     3    3    9 1
     4    4    6 1
     5    4    9 1
     6    5    6 1
     7    5    7 1
     8    6    8 1
     9    1   10 1
    10    1   11 1
    11    1   12 1
    12    2   13 1
    13    2   14 1
    14    2   15 1
    15    3   16 1
    16    3   17 1
    17    3   18 1
    18    4   19 1
    19    4   20 1
    20    5   21 1
    21    7   22 1
    22    8   23 1
