@<TRIPOS>MOLECULE
AlkEthOH_c1159
   19    18     0     0     0
SMALL
USER_CHARGES

@<TRIPOS>ATOM
      1 C1          0.0000   -0.0661    0.0863 C.3       1 <0>        -0.0925
      2 C2          0.1217   -0.0395    0.1755 C.3       1 <0>        -0.0816
      3 C3          0.1262   -0.1380    0.2925 C.3       1 <0>         0.1285
      4 C4          0.3854   -0.1531    0.5517 C.3       1 <0>         0.1254
      5 C5          0.2556   -0.1913    0.4796 C.3       1 <0>         0.0901
      6 O1          0.4975   -0.2150    0.4908 O.3       1 <0>        -0.5940
      7 O2          0.2368   -0.1104    0.3695 O.3       1 <0>        -0.4172
      8 H1         -0.0008    0.0053    0.0039 H         1 <0>         0.0376
      9 H2          0.0051   -0.1672    0.0459 H         1 <0>         0.0376
     10 H3         -0.0917   -0.0547    0.1443 H         1 <0>         0.0376
     11 H4          0.1162    0.0622    0.2145 H         1 <0>         0.0486
     12 H5          0.2127   -0.0500    0.1164 H         1 <0>         0.0486
     13 H6          0.0357   -0.1273    0.3525 H         1 <0>         0.0282
     14 H7          0.1325   -0.2399    0.2539 H         1 <0>         0.0282
     15 H8          0.3789   -0.1860    0.6555 H         1 <0>         0.0593
     16 H9          0.3967   -0.0446    0.5496 H         1 <0>         0.0593
     17 H10         0.1721   -0.1778    0.5485 H         1 <0>         0.0299
     18 H11         0.2604   -0.2961    0.4496 H         1 <0>         0.0299
     19 H12         0.5817   -0.1778    0.5181 H         1 <0>         0.3966
@<TRIPOS>BOND
     1    1    2 1
     2    2    3 1
     3    3    7 1
     4    4    5 1
     5    4    6 1
     6    5    7 1
     7    1    8 1
     8    1    9 1
     9    1   10 1
    10    2   11 1
    11    2   12 1
    12    3   13 1
    13    3   14 1
    14    4   15 1
    15    4   16 1
    16    5   17 1
    17    5   18 1
    18    6   19 1
