@<TRIPOS>MOLECULE
AlkEthOH_c80
   23    22     0     0     0
SMALL
USER_CHARGES

@<TRIPOS>ATOM
      1 C1         -0.8589   -0.7985    1.8417 C.3       1 <0>        -0.1253
      2 C2          1.7526   -0.1582    0.2547 C.3       1 <0>        -0.1156
      3 C3         -1.0476    1.6971   -3.2474 C.3       1 <0>         0.1172
      4 C4          0.2995    0.7223   -1.5984 C.3       1 <0>         0.1304
      5 C5         -0.8010   -0.5072    0.3351 C.3       1 <0>         0.1149
      6 C6          0.3716    0.4282   -0.0849 C.3       1 <0>         0.1643
      7 O1         -0.7405   -1.7598   -0.3276 O.3       1 <0>        -0.6186
      8 O2          0.2727    1.6764    0.5755 O.3       1 <0>        -0.6053
      9 O3         -0.8560    1.4231   -1.9116 O.3       1 <0>        -0.4259
     10 H1         -1.7675   -1.3554    2.0705 H         1 <0>         0.0464
     11 H2         -0.8751    0.1356    2.4033 H         1 <0>         0.0464
     12 H3          0.0037   -1.3889    2.1503 H         1 <0>         0.0464
     13 H4          1.8612   -0.2720    1.3328 H         1 <0>         0.0508
     14 H5          2.5367    0.5116   -0.0991 H         1 <0>         0.0508
     15 H6          1.8758   -1.1303   -0.2232 H         1 <0>         0.0508
     16 H7         -1.9808    2.2474   -3.3700 H         1 <0>         0.0342
     17 H8         -1.1077    0.7675   -3.8151 H         1 <0>         0.0342
     18 H9         -0.2250    2.3046   -3.6274 H         1 <0>         0.0342
     19 H10         0.3237   -0.2198   -2.1485 H         1 <0>         0.0431
     20 H11         1.1689    1.3149   -1.8878 H         1 <0>         0.0431
     21 H12        -1.7352   -0.0166    0.0562 H         1 <0>         0.0570
     22 H13        -1.4827   -2.3319   -0.1168 H         1 <0>         0.4050
     23 H14        -0.3902    2.2230    0.1398 H         1 <0>         0.4215
@<TRIPOS>BOND
     1    1    5 1
     2    2    6 1
     3    3    9 1
     4    4    6 1
     5    4    9 1
     6    5    6 1
     7    5    7 1
     8    6    8 1
     9    1   10 1
    10    1   11 1
    11    1   12 1
    12    2   13 1
    13    2   14 1
    14    2   15 1
    15    3   16 1
    16    3   17 1
    17    3   18 1
    18    4   19 1
    19    4   20 1
    20    5   21 1
    21    7   22 1
    22    8   23 1
