@<TRIPOS>MOLECULE
AlkEthOH_c80
23   22    1
SMALL
USER_CHARGES


@<TRIPOS>ATOM
      1 C1         -0.8796   -0.7632    1.8547 C.3       1 MOL        -0.1253 
      2 C2          1.7651   -0.1839    0.2676 C.3       1 MOL        -0.1156 
      3 C3         -1.0670    1.7516   -3.2261 C.3       1 MOL         0.1172 
      4 C4          0.3168    0.7191   -1.6151 C.3       1 MOL         0.1304 
      5 C5         -0.7923   -0.5378    0.3353 C.3       1 MOL         0.1149 
      6 C6          0.3824    0.3749   -0.1148 C.3       1 MOL         0.1643 
      7 O1         -0.6834   -1.8059   -0.2807 O.3       1 MOL        -0.6186 
      8 O2          0.2500    1.6334    0.5008 O.3       1 MOL        -0.6053 
      9 O3         -0.8826    1.4502   -1.8531 O.3       1 MOL        -0.4259 
     10 H1         -1.7592   -1.3513    2.1160 H         1 MOL         0.0464 
     11 H2         -0.9542    0.1836    2.3904 H         1 MOL         0.0464 
     12 H3         -0.0072   -1.2919    2.2383 H         1 MOL         0.0464 
     13 H4          1.8709   -0.3007    1.3455 H         1 MOL         0.0508 
     14 H5          2.5654    0.4787   -0.0624 H         1 MOL         0.0508 
     15 H6          1.9363   -1.1583   -0.1904 H         1 MOL         0.0508 
     16 H7         -1.9907    2.3155   -3.3570 H         1 MOL         0.0342 
     17 H8         -1.1427    0.8416   -3.8230 H         1 MOL         0.0342 
     18 H9         -0.2461    2.3571   -3.6130 H         1 MOL         0.0342 
     19 H10         0.3369   -0.1948   -2.2119 H         1 MOL         0.0431 
     20 H11         1.1799    1.3176   -1.9137 H         1 MOL         0.0431 
     21 H12        -1.7336   -0.0938    0.0065 H         1 MOL         0.0570 
     22 H13        -1.4570   -2.3073   -0.0727 H         1 MOL         0.4050 
     23 H14        -0.4099    2.0788   -0.0190 H         1 MOL         0.4215 
@<TRIPOS>BOND
     1    1    5 1    
     2    1   10 1    
     3    1   11 1    
     4    1   12 1    
     5    2    6 1    
     6    2   13 1    
     7    2   14 1    
     8    2   15 1    
     9    3    9 1    
    10    3   16 1    
    11    3   17 1    
    12    3   18 1    
    13    4    6 1    
    14    4    9 1    
    15    4   19 1    
    16    4   20 1    
    17    5    6 1    
    18    5    7 1    
    19    5   21 1    
    20    6    8 1    
    21    7   22 1    
    22    8   23 1    
@<TRIPOS>SUBSTRUCTURE
     1 MOL         1 GROUP             0       ****    0 ROOT    
