@<TRIPOS>MOLECULE
AlkEthOH_c42
20   19    1
SMALL
USER_CHARGES


@<TRIPOS>ATOM
      1 C1          0.3578    0.8458    1.8999 C.3       1 MOL        -0.1228 
      2 C2          1.3473   -0.8751   -1.4074 C.3       1 MOL        -0.1228 
      3 C3         -0.1595    1.2641    0.5132 C.3       1 MOL         0.1266 
      4 C4          0.1134   -1.1234   -0.5319 C.3       1 MOL         0.1266 
      5 C5         -0.7724    0.1217   -0.3279 C.3       1 MOL         0.1538 
      6 O1         -1.1807    2.2284    0.7067 O.3       1 MOL        -0.6143 
      7 O2         -0.7116   -2.0682   -1.1704 O.3       1 MOL        -0.6143 
      8 O3         -1.9414   -0.2699    0.3600 O.3       1 MOL        -0.6082 
      9 H1          0.7120    1.7112    2.4605 H         1 MOL         0.0495 
     10 H2          1.1951    0.1528    1.8206 H         1 MOL         0.0495 
     11 H3         -0.4173    0.3631    2.4960 H         1 MOL         0.0495 
     12 H4          1.8996   -1.8009   -1.5713 H         1 MOL         0.0495 
     13 H5          2.0292   -0.1665   -0.9378 H         1 MOL         0.0495 
     14 H6          1.0700   -0.4779   -2.3843 H         1 MOL         0.0495 
     15 H7          0.6564    1.7313   -0.0404 H         1 MOL         0.0392 
     16 H8          0.4161   -1.5429    0.4282 H         1 MOL         0.0392 
     17 H9         -1.0710    0.5159   -1.3019 H         1 MOL         0.0634 
     18 H10        -1.3294    2.6835   -0.1113 H         1 MOL         0.4063 
     19 H11        -1.5556   -1.9781   -0.7389 H         1 MOL         0.4063 
     20 H12        -2.1916    0.5096    0.8485 H         1 MOL         0.4242 
@<TRIPOS>BOND
     1    1    3 1    
     2    1    9 1    
     3    1   10 1    
     4    1   11 1    
     5    2    4 1    
     6    2   12 1    
     7    2   13 1    
     8    2   14 1    
     9    3    5 1    
    10    3    6 1    
    11    3   15 1    
    12    4    5 1    
    13    4    7 1    
    14    4   16 1    
    15    5    8 1    
    16    5   17 1    
    17    6   18 1    
    18    7   19 1    
    19    8   20 1    
@<TRIPOS>SUBSTRUCTURE
     1 MOL         1 GROUP             0       ****    0 ROOT    
