@<TRIPOS>MOLECULE
AlkEthOH_c1008
   14    13     0     0     0
SMALL
NO_CHARGES

@<TRIPOS>ATOM
      1 C1          0.4009   -0.7261    0.7081 C.3       1 <0>         0.0000
      2 C2          2.5529    1.6342    2.8939 C.3       1 <0>         0.0000
      3 C3          1.6355   -0.1811    1.4081 C.3       1 <0>         0.0000
      4 C4          1.3183    1.0900    2.1933 C.3       1 <0>         0.0000
      5 H1          0.6507   -1.6344    0.1511 H         1 <0>         0.0000
      6 H2         -0.3818   -0.9758    1.4318 H         1 <0>         0.0000
      7 H3         -0.0041    0.0052    0.0015 H         1 <0>         0.0000
      8 H4          2.3035    2.5436    3.4498 H         1 <0>         0.0000
      9 H5          3.3370    1.8819    2.1714 H         1 <0>         0.0000
     10 H6          2.9564    0.9032    3.6020 H         1 <0>         0.0000
     11 H7          2.0331   -0.9471    2.0841 H         1 <0>         0.0000
     12 H8          2.4106    0.0260    0.6611 H         1 <0>         0.0000
     13 H9          0.9206    1.8560    1.5177 H         1 <0>         0.0000
     14 H10         0.5432    0.8828    2.9403 H         1 <0>         0.0000
@<TRIPOS>BOND
     1    1    3 1
     2    2    4 1
     3    3    4 1
     4    1    5 1
     5    1    6 1
     6    1    7 1
     7    2    8 1
     8    2    9 1
     9    2   10 1
    10    3   11 1
    11    3   12 1
    12    4   13 1
    13    4   14 1
