@<TRIPOS>MOLECULE
AlkEthOH_c1178
   28    27     0     0     0
SMALL
NO_CHARGES

@<TRIPOS>ATOM
      1 C1         -1.6877    0.2495   -5.0649 C.3       1 <0>         0.0000
      2 C2         -1.5949   -2.0431    0.6778 C.3       1 <0>         0.0000
      3 C3         -0.6843   -2.9742   -1.4545 C.3       1 <0>         0.0000
      4 C4         -3.5647   -1.9677   -1.8309 C.3       1 <0>         0.0000
      5 C5         -2.8685    0.2654   -0.9053 C.3       1 <0>         0.0000
      6 C6         -2.5786   -0.1403   -3.8997 C.3       1 <0>         0.0000
      7 C7         -1.2243   -1.7068   -0.7705 C.3       1 <0>         0.0000
      8 C8         -2.3776   -1.0171   -1.6049 C.3       1 <0>         0.0000
      9 O1         -0.1064   -0.7886   -0.7034 O.3       1 <0>         0.0000
     10 O2         -1.7400   -0.6514   -2.8632 O.3       1 <0>         0.0000
     11 H1         -2.2810    0.6454   -5.8938 H         1 <0>         0.0000
     12 H2         -0.9600    1.0077   -4.7568 H         1 <0>         0.0000
     13 H3         -1.1166   -0.6151   -5.4197 H         1 <0>         0.0000
     14 H4         -1.8317   -1.1431    1.2540 H         1 <0>         0.0000
     15 H5         -2.4374   -2.7371    0.7406 H         1 <0>         0.0000
     16 H6         -0.7434   -2.5025    1.1948 H         1 <0>         0.0000
     17 H7         -0.3616   -2.7700   -2.4812 H         1 <0>         0.0000
     18 H8          0.2032   -3.3478   -0.9297 H         1 <0>         0.0000
     19 H9         -1.4271   -3.7773   -1.4749 H         1 <0>         0.0000
     20 H10        -3.2914   -2.8003   -2.4871 H         1 <0>         0.0000
     21 H11        -3.9525   -2.3705   -0.8911 H         1 <0>         0.0000
     22 H12        -4.3979   -1.4515   -2.3213 H         1 <0>         0.0000
     23 H13        -2.0580    0.9945   -0.7996 H         1 <0>         0.0000
     24 H14        -3.6570    0.7620   -1.4799 H         1 <0>         0.0000
     25 H15        -3.2887    0.0579    0.0831 H         1 <0>         0.0000
     26 H16        -3.2820   -0.9093   -4.2317 H         1 <0>         0.0000
     27 H17        -3.1298    0.7401   -3.5600 H         1 <0>         0.0000
     28 H18        -0.0250   -0.4424   -1.6203 H         1 <0>         0.0000
@<TRIPOS>BOND
     1    1    6 1
     2    2    7 1
     3    3    7 1
     4    4    8 1
     5    5    8 1
     6    6   10 1
     7    7    8 1
     8    7    9 1
     9    8   10 1
    10    1   11 1
    11    1   12 1
    12    1   13 1
    13    2   14 1
    14    2   15 1
    15    2   16 1
    16    3   17 1
    17    3   18 1
    18    3   19 1
    19    4   20 1
    20    4   21 1
    21    4   22 1
    22    5   23 1
    23    5   24 1
    24    5   25 1
    25    6   26 1
    26    6   27 1
    27    9   28 1
