@<TRIPOS>MOLECULE
AlkEthOH_c42
   20    19     0     0     0
SMALL
NO_CHARGES

@<TRIPOS>ATOM
      1 C1          0.3894    0.9602    1.8365 C.3       1 <0>         0.0000
      2 C2          1.3636   -0.7862   -1.3525 C.3       1 <0>         0.0000
      3 C3         -0.1733    1.2720    0.4557 C.3       1 <0>         0.0000
      4 C4          0.1605   -1.1308   -0.4908 C.3       1 <0>         0.0000
      5 C5         -0.7922    0.0541   -0.2583 C.3       1 <0>         0.0000
      6 O1         -1.2066    2.2598    0.6400 O.3       1 <0>         0.0000
      7 O2         -0.5713   -2.1805   -1.1541 O.3       1 <0>         0.0000
      8 O3         -1.9217   -0.4354    0.5061 O.3       1 <0>         0.0000
      9 H1          0.7378    1.8803    2.3190 H         1 <0>         0.0000
     10 H2          1.2311    0.2643    1.7839 H         1 <0>         0.0000
     11 H3         -0.3778    0.5376    2.4941 H         1 <0>         0.0000
     12 H4          1.9490   -1.6869   -1.5674 H         1 <0>         0.0000
     13 H5          2.0191   -0.0602   -0.8637 H         1 <0>         0.0000
     14 H6          1.0477   -0.3802   -2.3198 H         1 <0>         0.0000
     15 H7          0.6081    1.7278   -0.1615 H         1 <0>         0.0000
     16 H8          0.4901   -1.5544    0.4640 H         1 <0>         0.0000
     17 H9         -1.2215    0.3742   -1.2159 H         1 <0>         0.0000
     18 H10        -1.4675    2.5482   -0.2595 H         1 <0>         0.0000
     19 H11        -1.4253   -2.2181   -0.6675 H         1 <0>         0.0000
     20 H12        -2.3731    0.3788    0.8216 H         1 <0>         0.0000
@<TRIPOS>BOND
     1    1    3 1
     2    2    4 1
     3    3    5 1
     4    3    6 1
     5    4    5 1
     6    4    7 1
     7    5    8 1
     8    1    9 1
     9    1   10 1
    10    1   11 1
    11    2   12 1
    12    2   13 1
    13    2   14 1
    14    3   15 1
    15    4   16 1
    16    5   17 1
    17    6   18 1
    18    7   19 1
    19    8   20 1
