@<TRIPOS>MOLECULE
AlkEthOH_c1159
   19    18     0     0     0
SMALL
NO_CHARGES

@<TRIPOS>ATOM
      1 C1         -0.0259   -0.6699    0.8607 C.3       1 <0>         0.0000
      2 C2          1.2032   -0.4160    1.7149 C.3       1 <0>         0.0000
      3 C3          1.2687   -1.3597    2.9086 C.3       1 <0>         0.0000
      4 C4          3.8582   -1.5687    5.5543 C.3       1 <0>         0.0000
      5 C5          2.5721   -1.9081    4.8054 C.3       1 <0>         0.0000
      6 O1          4.9972   -1.9892    4.7958 O.3       1 <0>         0.0000
      7 O2          2.4511   -1.0544    3.6550 O.3       1 <0>         0.0000
      8 H1         -0.0475    0.0211    0.0123 H         1 <0>         0.0000
      9 H2         -0.0260   -1.6914    0.4669 H         1 <0>         0.0000
     10 H3         -0.9431   -0.5249    1.4404 H         1 <0>         0.0000
     11 H4          1.2037    0.6226    2.0670 H         1 <0>         0.0000
     12 H5          2.1090   -0.5282    1.1070 H         1 <0>         0.0000
     13 H6          0.3885   -1.2257    3.5479 H         1 <0>         0.0000
     14 H7          1.3107   -2.4007    2.5682 H         1 <0>         0.0000
     15 H8          3.8848   -2.0875    6.5170 H         1 <0>         0.0000
     16 H9          3.9405   -0.4891    5.7142 H         1 <0>         0.0000
     17 H10         1.7098   -1.7441    5.4604 H         1 <0>         0.0000
     18 H11         2.5941   -2.9521    4.4735 H         1 <0>         0.0000
     19 H12         5.7770   -1.7062    5.3155 H         1 <0>         0.0000
@<TRIPOS>BOND
     1    1    2 1
     2    2    3 1
     3    3    7 1
     4    4    5 1
     5    4    6 1
     6    5    7 1
     7    1    8 1
     8    1    9 1
     9    1   10 1
    10    2   11 1
    11    2   12 1
    12    3   13 1
    13    3   14 1
    14    4   15 1
    15    4   16 1
    16    5   17 1
    17    5   18 1
    18    6   19 1
