@<TRIPOS>MOLECULE
AlkEthOH_c80
23   22    1
SMALL
USER_CHARGES


@<TRIPOS>ATOM
      1 C1         -0.8782   -0.8048    1.8580 C.3       1 MOL        -0.1253 
      2 C2          1.7715   -0.1652    0.2686 C.3       1 MOL        -0.1156 
      3 C3         -1.0645    1.7388   -3.2857 C.3       1 MOL         0.1172 
      4 C4          0.3085    0.7344   -1.6159 C.3       1 MOL         0.1304 
      5 C5         -0.7965   -0.5251    0.3448 C.3       1 MOL         0.1149 
      6 C6          0.3846    0.4036   -0.1018 C.3       1 MOL         0.1643 
      7 O1         -0.7368   -1.7868   -0.3031 O.3       1 MOL        -0.6186 
      8 O2          0.2827    1.6520    0.5622 O.3       1 MOL        -0.6053 
      9 O3         -0.8853    1.4695   -1.9025 O.3       1 MOL        -0.4259 
     10 H1         -1.7718   -1.3763    2.1099 H         1 MOL         0.0464 
     11 H2         -0.9198    0.1233    2.4283 H         1 MOL         0.0464 
     12 H3         -0.0159   -1.3696    2.2136 H         1 MOL         0.0464 
     13 H4          1.8817   -0.2939    1.3453 H         1 MOL         0.0508 
     14 H5          2.5763    0.4945   -0.0571 H         1 MOL         0.0508 
     15 H6          1.9358   -1.1373   -0.1966 H         1 MOL         0.0508 
     16 H7         -1.9848    2.3049   -3.4308 H         1 MOL         0.0342 
     17 H8         -1.1468    0.8170   -3.8643 H         1 MOL         0.0342 
     18 H9         -0.2414    2.3319   -3.6879 H         1 MOL         0.0342 
     19 H10         0.3400   -0.1894   -2.1976 H         1 MOL         0.0431 
     20 H11         1.1764    1.3254   -1.9168 H         1 MOL         0.0431 
     21 H12        -1.7341   -0.0522    0.0443 H         1 MOL         0.0570 
     22 H13        -1.4784   -2.3189   -0.0040 H         1 MOL         0.4050 
     23 H14        -0.4051    2.1372    0.0913 H         1 MOL         0.4215 
@<TRIPOS>BOND
     1    1    5 1    
     2    1   10 1    
     3    1   11 1    
     4    1   12 1    
     5    2    6 1    
     6    2   13 1    
     7    2   14 1    
     8    2   15 1    
     9    3    9 1    
    10    3   16 1    
    11    3   17 1    
    12    3   18 1    
    13    4    6 1    
    14    4    9 1    
    15    4   19 1    
    16    4   20 1    
    17    5    6 1    
    18    5    7 1    
    19    5   21 1    
    20    6    8 1    
    21    7   22 1    
    22    8   23 1    
@<TRIPOS>SUBSTRUCTURE
     1 MOL         1 GROUP             0       ****    0 ROOT    
