@<TRIPOS>MOLECULE
AlkEthOH_c1178
   28    27     0     0     0
SMALL
USER_CHARGES

@<TRIPOS>ATOM
      1 C1         -0.1646    0.0176   -0.5120 C.3       1 <0>        -0.0970
      2 C2         -0.1539   -0.1938    0.0737 C.3       1 <0>        -0.1203
      3 C3         -0.0743   -0.3053   -0.1385 C.3       1 <0>        -0.1203
      4 C4         -0.3550   -0.1998   -0.1870 C.3       1 <0>        -0.1164
      5 C5         -0.2889    0.0278   -0.0908 C.3       1 <0>        -0.1164
      6 C6         -0.2564   -0.0056   -0.3909 C.3       1 <0>         0.1309
      7 C7         -0.1194   -0.1706   -0.0759 C.3       1 <0>         0.1618
      8 C8         -0.2367   -0.1022   -0.1592 C.3       1 <0>         0.1705
      9 O1         -0.0070   -0.0837   -0.0805 O.3       1 <0>        -0.6072
     10 O2         -0.1759   -0.0649   -0.2866 O.3       1 <0>        -0.4294
     11 H1         -0.2209    0.0625   -0.5948 H         1 <0>         0.0432
     12 H2         -0.0823    0.0851   -0.4857 H         1 <0>         0.0432
     13 H3         -0.1220   -0.0774   -0.5469 H         1 <0>         0.0432
     14 H4         -0.1690   -0.0990    0.1268 H         1 <0>         0.0461
     15 H5         -0.2443   -0.2547    0.0854 H         1 <0>         0.0461
     16 H6         -0.0719   -0.2463    0.1243 H         1 <0>         0.0461
     17 H7         -0.0514   -0.2940   -0.2452 H         1 <0>         0.0461
     18 H8          0.0160   -0.3429   -0.0887 H         1 <0>         0.0461
     19 H9         -0.1519   -0.3821   -0.1283 H         1 <0>         0.0461
     20 H10        -0.3268   -0.2764   -0.2603 H         1 <0>         0.0472
     21 H11        -0.3871   -0.2506   -0.0953 H         1 <0>         0.0472
     22 H12        -0.4422   -0.1463   -0.2264 H         1 <0>         0.0472
     23 H13        -0.2077    0.1000   -0.0758 H         1 <0>         0.0472
     24 H14        -0.3670    0.0764   -0.1504 H         1 <0>         0.0472
     25 H15        -0.3336    0.0060    0.0069 H         1 <0>         0.0472
     26 H16        -0.3383   -0.0725   -0.4202 H         1 <0>         0.0267
     27 H17        -0.2982    0.0905   -0.3586 H         1 <0>         0.0267
     28 H18        -0.0157   -0.0414   -0.1684 H         1 <0>         0.4012
@<TRIPOS>BOND
     1    1    6 1
     2    2    7 1
     3    3    7 1
     4    4    8 1
     5    5    8 1
     6    6   10 1
     7    7    8 1
     8    7    9 1
     9    8   10 1
    10    1   11 1
    11    1   12 1
    12    1   13 1
    13    2   14 1
    14    2   15 1
    15    2   16 1
    16    3   17 1
    17    3   18 1
    18    3   19 1
    19    4   20 1
    20    4   21 1
    21    4   22 1
    22    5   23 1
    23    5   24 1
    24    5   25 1
    25    6   26 1
    26    6   27 1
    27    9   28 1
