@<TRIPOS>MOLECULE
AlkEthOH_c80
   23    22     0     0     0
SMALL
USER_CHARGES

@<TRIPOS>ATOM
      1 C1         -0.8949   -0.8120    1.8542 C.3       1 <0>        -0.1253
      2 C2          1.7621   -0.1507    0.2799 C.3       1 <0>        -0.1156
      3 C3         -1.0652    1.8149   -3.2768 C.3       1 <0>         0.1172
      4 C4          0.2976    0.6918   -1.6226 C.3       1 <0>         0.1304
      5 C5         -0.8009   -0.5636    0.3288 C.3       1 <0>         0.1149
      6 C6          0.3644    0.4086   -0.0933 C.3       1 <0>         0.1643
      7 O1         -0.6797   -1.8311   -0.3247 O.3       1 <0>        -0.6186
      8 O2          0.2017    1.6631    0.5661 O.3       1 <0>        -0.6053
      9 O3         -0.8394    1.5504   -1.8817 O.3       1 <0>        -0.4259
     10 H1         -1.7890   -1.4001    2.0948 H         1 <0>         0.0464
     11 H2         -0.9671    0.1358    2.4021 H         1 <0>         0.0464
     12 H3         -0.0178   -1.3549    2.2270 H         1 <0>         0.0464
     13 H4          1.8672   -0.2654    1.3653 H         1 <0>         0.0508
     14 H5          2.5555    0.5261   -0.0606 H         1 <0>         0.0508
     15 H6          1.9318   -1.1297   -0.1854 H         1 <0>         0.0508
     16 H7         -1.9369    2.4703   -3.3965 H         1 <0>         0.0342
     17 H8         -1.2555    0.8787   -3.8172 H         1 <0>         0.0342
     18 H9         -0.1914    2.3106   -3.7189 H         1 <0>         0.0342
     19 H10         0.2053   -0.2509   -2.1777 H         1 <0>         0.0431
     20 H11         1.2198    1.1911   -1.9471 H         1 <0>         0.0431
     21 H12        -1.7442   -0.0934    0.0195 H         1 <0>         0.0570
     22 H13        -1.2795   -2.4472    0.1319 H         1 <0>         0.4050
     23 H14        -0.3440    2.1746   -0.0661 H         1 <0>         0.4215
@<TRIPOS>BOND
     1    1    5 1
     2    2    6 1
     3    3    9 1
     4    4    6 1
     5    4    9 1
     6    5    6 1
     7    5    7 1
     8    6    8 1
     9    1   10 1
    10    1   11 1
    11    1   12 1
    12    2   13 1
    13    2   14 1
    14    2   15 1
    15    3   16 1
    16    3   17 1
    17    3   18 1
    18    4   19 1
    19    4   20 1
    20    5   21 1
    21    7   22 1
    22    8   23 1
