@<TRIPOS>MOLECULE
AlkEthOH_c260
   25    24     0     0     0
SMALL
USER_CHARGES

@<TRIPOS>ATOM
      1 C1         -0.0560    0.1341   -0.2337 C.3       1 <0>        -0.0942
      2 C2         -0.0992    0.1988    0.0065 C.3       1 <0>        -0.0942
      3 C3          0.1739   -0.1635    0.1185 C.3       1 <0>        -0.1046
      4 C4         -0.0784   -0.1479    0.1279 C.3       1 <0>        -0.1046
      5 C5         -0.0714    0.0795   -0.0889 C.3       1 <0>        -0.0891
      6 C6          0.0535   -0.0070   -0.0472 C.3       1 <0>         0.1161
      7 C7          0.0521   -0.0694    0.0985 C.3       1 <0>         0.1239
      8 O1          0.0694   -0.1114   -0.1440 O.3       1 <0>        -0.5936
      9 O2          0.0648    0.0334    0.1964 O.3       1 <0>        -0.5933
     10 H1         -0.0496    0.0529   -0.3073 H         1 <0>         0.0402
     11 H2          0.0344    0.1955   -0.2429 H         1 <0>         0.0402
     12 H3         -0.1421    0.1962   -0.2615 H         1 <0>         0.0402
     13 H4         -0.1366    0.1643    0.1036 H         1 <0>         0.0402
     14 H5         -0.0083    0.2579    0.0233 H         1 <0>         0.0402
     15 H6         -0.1757    0.2655   -0.0351 H         1 <0>         0.0402
     16 H7          0.2677   -0.1123    0.0938 H         1 <0>         0.0464
     17 H8          0.1664   -0.2522    0.0542 H         1 <0>         0.0464
     18 H9          0.1800   -0.1988    0.2223 H         1 <0>         0.0464
     19 H10        -0.1657   -0.0815    0.1285 H         1 <0>         0.0464
     20 H11        -0.0732   -0.1967    0.2260 H         1 <0>         0.0464
     21 H12        -0.0952   -0.2258    0.0525 H         1 <0>         0.0464
     22 H13        -0.1604    0.0153   -0.0877 H         1 <0>         0.0467
     23 H14         0.1415    0.0586   -0.0523 H         1 <0>         0.0689
     24 H15        -0.0148   -0.1172   -0.1923 H         1 <0>         0.3980
     25 H16         0.1534    0.0244    0.2356 H         1 <0>         0.4002
@<TRIPOS>BOND
     1    1    5 1
     2    2    5 1
     3    3    7 1
     4    4    7 1
     5    5    6 1
     6    6    7 1
     7    6    8 1
     8    7    9 1
     9    1   10 1
    10    1   11 1
    11    1   12 1
    12    2   13 1
    13    2   14 1
    14    2   15 1
    15    3   16 1
    16    3   17 1
    17    3   18 1
    18    4   19 1
    19    4   20 1
    20    4   21 1
    21    5   22 1
    22    6   23 1
    23    8   24 1
    24    9   25 1
