@<TRIPOS>MOLECULE
AlkEthOH_c154
   29    28     0     0     0
SMALL
USER_CHARGES

@<TRIPOS>ATOM
      1 C1         -0.0054    0.1186    0.0327 C.3       1 <0>        -0.0872
      2 C2          0.0871    0.1318   -0.2037 C.3       1 <0>        -0.0872
      3 C3         -0.1579    0.1628   -0.1615 C.3       1 <0>        -0.0872
      4 C4          0.2544    0.3607   -0.0417 C.3       1 <0>        -0.0872
      5 C5          0.0881    0.4114    0.1437 C.3       1 <0>        -0.0872
      6 C6          0.1143    0.5686   -0.0495 C.3       1 <0>        -0.0872
      7 C7         -0.0027    0.3492   -0.0922 C.3       1 <0>        -0.0603
      8 C8         -0.0163    0.1920   -0.1038 C.3       1 <0>        -0.0476
      9 C9          0.1136    0.4180   -0.0099 C.3       1 <0>        -0.0476
     10 H1         -0.0710    0.1648    0.1076 H         1 <0>         0.0336
     11 H2          0.0973    0.1191    0.0708 H         1 <0>         0.0336
     12 H3         -0.0351    0.0134    0.0228 H         1 <0>         0.0336
     13 H4          0.0921    0.1909   -0.2960 H         1 <0>         0.0336
     14 H5          0.1878    0.1264   -0.1611 H         1 <0>         0.0336
     15 H6          0.0594    0.0293   -0.2315 H         1 <0>         0.0336
     16 H7         -0.1716    0.2117   -0.2588 H         1 <0>         0.0336
     17 H8         -0.2365    0.1992   -0.0941 H         1 <0>         0.0336
     18 H9         -0.1739    0.0551   -0.1757 H         1 <0>         0.0336
     19 H10         0.2716    0.3561   -0.1500 H         1 <0>         0.0336
     20 H11         0.2676    0.2604    0.0003 H         1 <0>         0.0336
     21 H12         0.3329    0.4240    0.0017 H         1 <0>         0.0336
     22 H13        -0.0156    0.4377    0.1679 H         1 <0>         0.0336
     23 H14         0.1535    0.4816    0.1972 H         1 <0>         0.0336
     24 H15         0.1086    0.3121    0.1850 H         1 <0>         0.0336
     25 H16         0.0171    0.6153   -0.0288 H         1 <0>         0.0336
     26 H17         0.1357    0.5813   -0.1565 H         1 <0>         0.0336
     27 H18         0.1907    0.6243    0.0063 H         1 <0>         0.0336
     28 H19         0.0011    0.3883   -0.1947 H         1 <0>         0.0368
     29 H20        -0.0972    0.3881   -0.0520 H         1 <0>         0.0368
@<TRIPOS>BOND
     1    1    8 1
     2    2    8 1
     3    3    8 1
     4    4    9 1
     5    5    9 1
     6    6    9 1
     7    7    8 1
     8    7    9 1
     9    1   10 1
    10    1   11 1
    11    1   12 1
    12    2   13 1
    13    2   14 1
    14    2   15 1
    15    3   16 1
    16    3   17 1
    17    3   18 1
    18    4   19 1
    19    4   20 1
    20    4   21 1
    21    5   22 1
    22    5   23 1
    23    5   24 1
    24    6   25 1
    25    6   26 1
    26    6   27 1
    27    7   28 1
    28    7   29 1
