@<TRIPOS>MOLECULE
AlkEthOH_c42
   20    19     0     0     0
SMALL
USER_CHARGES

@<TRIPOS>ATOM
      1 C1          0.3561    0.9225    1.7812 C.3       1 <0>        -0.1228
      2 C2          1.3476   -0.8665   -1.3601 C.3       1 <0>        -0.1228
      3 C3         -0.2360    1.2547    0.3908 C.3       1 <0>         0.1266
      4 C4          0.0962   -1.1905   -0.5165 C.3       1 <0>         0.1266
      5 C5         -0.8613    0.0277   -0.3460 C.3       1 <0>         0.1538
      6 O1         -1.2478    2.2516    0.5548 O.3       1 <0>        -0.6143
      7 O2         -0.6232   -2.2372   -1.1545 O.3       1 <0>        -0.6143
      8 O3         -2.0312   -0.3809    0.3686 O.3       1 <0>        -0.6082
      9 H1          0.7248    1.8315    2.2724 H         1 <0>         0.0495
     10 H2          1.2027    0.2307    1.6956 H         1 <0>         0.0495
     11 H3         -0.3966    0.4610    2.4331 H         1 <0>         0.0495
     12 H4          1.9547   -1.7695   -1.5019 H         1 <0>         0.0495
     13 H5          1.9771   -0.1170   -0.8661 H         1 <0>         0.0495
     14 H6          1.0647   -0.4845   -2.3491 H         1 <0>         0.0495
     15 H7          0.5685    1.6585   -0.2375 H         1 <0>         0.0392
     16 H8          0.4200   -1.5331    0.4745 H         1 <0>         0.0392
     17 H9         -1.1530    0.3642   -1.3501 H         1 <0>         0.0634
     18 H10        -0.8030    3.0904    0.7777 H         1 <0>         0.4063
     19 H11        -1.5264   -2.1564   -0.7844 H         1 <0>         0.4063
     20 H12        -2.3688    0.4669    0.7275 H         1 <0>         0.4242
@<TRIPOS>BOND
     1    1    3 1
     2    2    4 1
     3    3    5 1
     4    3    6 1
     5    4    5 1
     6    4    7 1
     7    5    8 1
     8    1    9 1
     9    1   10 1
    10    1   11 1
    11    2   12 1
    12    2   13 1
    13    2   14 1
    14    3   15 1
    15    4   16 1
    16    5   17 1
    17    6   18 1
    18    7   19 1
    19    8   20 1
