@<TRIPOS>MOLECULE
AlkEthOH_c80
   23    22     0     0     0
SMALL
USER_CHARGES

@<TRIPOS>ATOM
      1 C1         -0.0895   -0.0812    0.1854 C.3       1 <0>        -0.1253
      2 C2          0.1763   -0.0151    0.0280 C.3       1 <0>        -0.1156
      3 C3         -0.1067    0.1813   -0.3276 C.3       1 <0>         0.1172
      4 C4          0.0299    0.0693   -0.1622 C.3       1 <0>         0.1304
      5 C5         -0.0801   -0.0563    0.0328 C.3       1 <0>         0.1149
      6 C6          0.0365    0.0409   -0.0093 C.3       1 <0>         0.1643
      7 O1         -0.0680   -0.1830   -0.0326 O.3       1 <0>        -0.6186
      8 O2          0.0203    0.1664    0.0567 O.3       1 <0>        -0.6053
      9 O3         -0.0839    0.1550   -0.1881 O.3       1 <0>        -0.4259
     10 H1         -0.1790   -0.1399    0.2094 H         1 <0>         0.0464
     11 H2         -0.0966    0.0136    0.2402 H         1 <0>         0.0464
     12 H3         -0.0019   -0.1356    0.2226 H         1 <0>         0.0464
     13 H4          0.1867   -0.0269    0.1365 H         1 <0>         0.0508
     14 H5          0.2556    0.0527   -0.0057 H         1 <0>         0.0508
     15 H6          0.1933   -0.1128   -0.0187 H         1 <0>         0.0508
     16 H7         -0.1938    0.2469   -0.3396 H         1 <0>         0.0342
     17 H8         -0.1259    0.0876   -0.3815 H         1 <0>         0.0342
     18 H9         -0.0193    0.2306   -0.3720 H         1 <0>         0.0342
     19 H10         0.0208   -0.0250   -0.2178 H         1 <0>         0.0431
     20 H11         0.1221    0.1194   -0.1946 H         1 <0>         0.0431
     21 H12        -0.1744   -0.0092    0.0019 H         1 <0>         0.0570
     22 H13        -0.1282   -0.2445    0.0129 H         1 <0>         0.4050
     23 H14        -0.0343    0.2175   -0.0065 H         1 <0>         0.4215
@<TRIPOS>BOND
     1    1    5 1
     2    2    6 1
     3    3    9 1
     4    4    6 1
     5    4    9 1
     6    5    6 1
     7    5    7 1
     8    6    8 1
     9    1   10 1
    10    1   11 1
    11    1   12 1
    12    2   13 1
    13    2   14 1
    14    2   15 1
    15    3   16 1
    16    3   17 1
    17    3   18 1
    18    4   19 1
    19    4   20 1
    20    5   21 1
    21    7   22 1
    22    8   23 1
