@<TRIPOS>MOLECULE
AlkEthOH_c1008
   14    13     0     0     0
SMALL
USER_CHARGES

@<TRIPOS>ATOM
      1 C1          0.0383   -0.0747    0.0688 C.3       1 <0>        -0.0922
      2 C2          0.2571    0.1656    0.2913 C.3       1 <0>        -0.0922
      3 C3          0.1633   -0.0190    0.1402 C.3       1 <0>        -0.0801
      4 C4          0.1321    0.1098    0.2200 C.3       1 <0>        -0.0801
      5 H1          0.0633   -0.1658    0.0131 H         1 <0>         0.0323
      6 H2         -0.0402   -0.0996    0.1413 H         1 <0>         0.0323
      7 H3         -0.0022   -0.0014   -0.0021 H         1 <0>         0.0323
      8 H4          0.2321    0.2567    0.3471 H         1 <0>         0.0323
      9 H5          0.3356    0.1904    0.2188 H         1 <0>         0.0323
     10 H6          0.2976    0.0923    0.3623 H         1 <0>         0.0323
     11 H7          0.2034   -0.0955    0.2079 H         1 <0>         0.0377
     12 H8          0.2412    0.0019    0.0657 H         1 <0>         0.0377
     13 H9          0.0919    0.1863    0.1523 H         1 <0>         0.0377
     14 H10         0.0542    0.0889    0.2946 H         1 <0>         0.0377
@<TRIPOS>BOND
     1    1    3 1
     2    2    4 1
     3    3    4 1
     4    1    5 1
     5    1    6 1
     6    1    7 1
     7    2    8 1
     8    2    9 1
     9    2   10 1
    10    3   11 1
    11    3   12 1
    12    4   13 1
    13    4   14 1
