@<TRIPOS>MOLECULE
AlkEthOH_c42
   20    19     0     0     0
SMALL
USER_CHARGES

@<TRIPOS>ATOM
      1 C1          0.0357    0.0923    0.1780 C.3       1 <0>        -0.1228
      2 C2          0.1348   -0.0867   -0.1360 C.3       1 <0>        -0.1228
      3 C3         -0.0236    0.1255    0.0390 C.3       1 <0>         0.1266
      4 C4          0.0096   -0.1191   -0.0516 C.3       1 <0>         0.1266
      5 C5         -0.0861    0.0028   -0.0346 C.3       1 <0>         0.1538
      6 O1         -0.1249    0.2251    0.0555 O.3       1 <0>        -0.6143
      7 O2         -0.0623   -0.2237   -0.1154 O.3       1 <0>        -0.6143
      8 O3         -0.2031   -0.0381    0.0369 O.3       1 <0>        -0.6082
      9 H1          0.0726    0.1832    0.2271 H         1 <0>         0.0495
     10 H2          0.1203    0.0231    0.1695 H         1 <0>         0.0495
     11 H3         -0.0395    0.0462    0.2433 H         1 <0>         0.0495
     12 H4          0.1955   -0.1770   -0.1500 H         1 <0>         0.0495
     13 H5          0.1976   -0.0116   -0.0866 H         1 <0>         0.0495
     14 H6          0.1065   -0.0486   -0.2350 H         1 <0>         0.0495
     15 H7          0.0567    0.1659   -0.0238 H         1 <0>         0.0392
     16 H8          0.0420   -0.1533    0.0475 H         1 <0>         0.0392
     17 H9         -0.1154    0.0364   -0.1350 H         1 <0>         0.0634
     18 H10        -0.0805    0.3090    0.0779 H         1 <0>         0.4063
     19 H11        -0.1526   -0.2157   -0.0784 H         1 <0>         0.4063
     20 H12        -0.2368    0.0467    0.0728 H         1 <0>         0.4242
@<TRIPOS>BOND
     1    1    3 1
     2    2    4 1
     3    3    5 1
     4    3    6 1
     5    4    5 1
     6    4    7 1
     7    5    8 1
     8    1    9 1
     9    1   10 1
    10    1   11 1
    11    2   12 1
    12    2   13 1
    13    2   14 1
    14    3   15 1
    15    4   16 1
    16    5   17 1
    17    6   18 1
    18    7   19 1
    19    8   20 1
