@<TRIPOS>MOLECULE
AlkEthOH_c312
   20    19     0     0     0
SMALL
USER_CHARGES

@<TRIPOS>ATOM
      1 C1          0.0481   -0.0815    0.0545 C.3       1 <0>        -0.0892
      2 C2          0.0251    0.0564    0.2672 C.3       1 <0>        -0.0892
      3 C3          0.1221   -0.2434    0.3146 C.3       1 <0>        -0.0892
      4 C4          0.3255   -0.1829    0.1741 C.3       1 <0>        -0.0892
      5 C5          0.1235   -0.0215    0.1763 C.3       1 <0>        -0.0620
      6 C6          0.2071   -0.1269    0.2570 C.3       1 <0>        -0.0620
      7 H1          0.1168   -0.1322   -0.0142 H         1 <0>         0.0332
      8 H2         -0.0285   -0.1534    0.0862 H         1 <0>         0.0332
      9 H3         -0.0023   -0.0021   -0.0021 H         1 <0>         0.0332
     10 H4          0.0769    0.0980    0.3546 H         1 <0>         0.0332
     11 H5         -0.0200    0.1401    0.2123 H         1 <0>         0.0332
     12 H6         -0.0563   -0.0079    0.3028 H         1 <0>         0.0332
     13 H7          0.0411   -0.2062    0.3785 H         1 <0>         0.0332
     14 H8          0.0779   -0.3041    0.2346 H         1 <0>         0.0332
     15 H9          0.1845   -0.3096    0.3759 H         1 <0>         0.0332
     16 H10         0.3855   -0.1015    0.1314 H         1 <0>         0.0332
     17 H11         0.2905   -0.2466    0.0920 H         1 <0>         0.0332
     18 H12         0.3917   -0.2433    0.2375 H         1 <0>         0.0332
     19 H13         0.1945    0.0524    0.1368 H         1 <0>         0.0412
     20 H14         0.2513   -0.0741    0.3426 H         1 <0>         0.0412
@<TRIPOS>BOND
     1    1    5 1
     2    2    5 1
     3    3    6 1
     4    4    6 1
     5    5    6 1
     6    1    7 1
     7    1    8 1
     8    1    9 1
     9    2   10 1
    10    2   11 1
    11    2   12 1
    12    3   13 1
    13    3   14 1
    14    3   15 1
    15    4   16 1
    16    4   17 1
    17    4   18 1
    18    5   19 1
    19    6   20 1
