@<TRIPOS>MOLECULE
AlkEthOH_c1159
   19    18     0     0     0
SMALL
USER_CHARGES

@<TRIPOS>ATOM
      1 C1          0.0133   -0.0633    0.0838 C.3       1 <0>        -0.0925
      2 C2          0.1361   -0.0459    0.1757 C.3       1 <0>        -0.0816
      3 C3          0.1304   -0.1391    0.2984 C.3       1 <0>         0.1285
      4 C4          0.3875   -0.1603    0.5693 C.3       1 <0>         0.1254
      5 C5          0.2567   -0.1965    0.4961 C.3       1 <0>         0.0901
      6 O1          0.4966   -0.1684    0.4780 O.3       1 <0>        -0.5940
      7 O2          0.2483   -0.1155    0.3771 O.3       1 <0>        -0.4172
      8 H1          0.0200    0.0042   -0.0024 H         1 <0>         0.0376
      9 H2          0.0070   -0.1662    0.0462 H         1 <0>         0.0376
     10 H3         -0.0794   -0.0406    0.1379 H         1 <0>         0.0376
     11 H4          0.1419    0.0584    0.2096 H         1 <0>         0.0486
     12 H5          0.2276   -0.0664    0.1187 H         1 <0>         0.0486
     13 H6          0.0404   -0.1176    0.3574 H         1 <0>         0.0282
     14 H7          0.1270   -0.2438    0.2655 H         1 <0>         0.0282
     15 H8          0.4029   -0.2288    0.6537 H         1 <0>         0.0593
     16 H9          0.3792   -0.0584    0.6092 H         1 <0>         0.0593
     17 H10         0.1709   -0.1772    0.5619 H         1 <0>         0.0299
     18 H11         0.2575   -0.3031    0.4696 H         1 <0>         0.0299
     19 H12         0.4587   -0.1384    0.3929 H         1 <0>         0.3966
@<TRIPOS>BOND
     1    1    2 1
     2    2    3 1
     3    3    7 1
     4    4    5 1
     5    4    6 1
     6    5    7 1
     7    1    8 1
     8    1    9 1
     9    1   10 1
    10    2   11 1
    11    2   12 1
    12    3   13 1
    13    3   14 1
    14    4   15 1
    15    4   16 1
    16    5   17 1
    17    5   18 1
    18    6   19 1
